file 25846524 1751240236                                        
version 3
run General-2-0-20250629-20:13:36-295134
attr configname General-2
attr datetime 20250629-20:13:36
attr datetimef 20250629-201336
attr experiment General-2
attr inifile omnetpp.ini
attr iterationvars ""
attr iterationvarsd ""
attr iterationvarsf ""
attr measurement ""
attr network VideoStreamingShowcase
attr processid 295134
attr repetition 0
attr replication #0
attr resultdir results
attr runnumber 0
attr seedset 0
config image-path /home/anahoog/Downloads/omnetpp-6.1/samples/inet4.5/images
config description "(PER = 5% e Delay=10ms)"
config extends General-01
config **.switch2.ethg*[*].channel.per 0.05
config **.switch2.ethg*[*].channel.delay 10ms
config network VideoStreamingShowcase
config scheduler-class inet::RealTimeScheduler
config **.crcMode "\"computed\""
config **.fcsMode "\"computed\""
config *.host1.eth[0].typename ExtUpperEthernetInterface
config *.host1.eth[0].device "\"tapa\""
config *.host1.eth[0].copyConfiguration "\"copyFromExt\""
config *.host2.eth[0].typename ExtUpperEthernetInterface
config *.host2.eth[0].device "\"tapb\""
config *.host2.eth[0].copyConfiguration "\"copyFromExt\""
config *.configurator.config "xml(\"<config>                                 <interface hosts='router' names='eth0' address='192.168.2.99' netmask='255.255.255.0'/>                                 <interface hosts='router' names='eth1' address='192.168.3.99' netmask='255.255.255.0'/>                              </config>\")"
config *.router.ipv4.natTable.config "xml(\"<config>                                         <entry type='prerouting'                                         packetFilter='has(Ipv4Header) &amp;&amp; Ipv4Header.protocolId != 1 &amp;&amp; Ipv4Header.destAddress.str() == \\\"192.168.2.99\\\"'                                         srcAddress='192.168.3.99' destAddress='192.168.3.20'/>                                        <entry type='prerouting'                                         packetFilter='has(Ipv4Header) &amp;&amp; Ipv4Header.protocolId != 1 &amp;&amp; Ipv4Header.destAddress.str() == \\\"192.168.3.99\\\"'                                         srcAddress='192.168.2.99' destAddress='192.168.2.20'/>                                      </config>\")"
config *.visualizer.*.interfaceTableVisualizer.displayInterfaceTables true
config *.visualizer.*.interfaceTableVisualizer.nodeFilter "\"not name=~switch*\""
config **.duplexMode true
config **.eth*.bitrate 100Mbps

vector 0 VideoStreamingShowcase.switch1.bridging packetDropped:vector(packetBytes) ETV
attr interpolationmode none
attr recordingmode vector(packetBytes)
attr title "packets dropped, packetBytes"
vector 1 VideoStreamingShowcase.switch1.ethernet encapPk:vector(packetBytes) ETV
attr interpolationmode none
attr recordingmode vector(packetBytes)
attr source encapPk
attr title "packets encapsulated, packetBytes"
vector 2 VideoStreamingShowcase.switch1.ethernet decapPk:vector(packetBytes) ETV
attr interpolationmode none
attr recordingmode vector(packetBytes)
attr source decapPk
attr title "packets decapsulated, packetBytes"
vector 3 VideoStreamingShowcase.switch1.ethernet pauseSent:vector ETV
attr recordingmode vector
attr title "pause sent"
vector 4 VideoStreamingShowcase.switch1.ieee8021q.qTagHeaderInserter incomingPacketLengths:vector ETV
attr interpolationmode none
attr recordingmode vector
attr source "packetLength(merge(packetPushedIn, packetPulledIn))"
attr title "incoming packet lengths"
attr unit b
vector 5 VideoStreamingShowcase.switch1.ieee8021q.qTagHeaderInserter incomingDataRate:vector ETV
attr interpolationmode linear
attr recordingmode vector
attr source "throughput(merge(packetPushedIn, packetPulledIn))"
attr title "incoming data rate"
attr unit bps
vector 6 VideoStreamingShowcase.switch1.ieee8021q.qTagHeaderInserter outgoingPacketLengths:vector ETV
attr interpolationmode none
attr recordingmode vector
attr source "packetLength(merge(packetPushedOut, packetPulledOut))"
attr title "outgoing packet lengths"
attr unit b
vector 7 VideoStreamingShowcase.switch1.ieee8021q.qTagHeaderInserter outgoingDataRate:vector ETV
attr interpolationmode linear
attr recordingmode vector
attr source "throughput(merge(packetPushedOut, packetPulledOut))"
attr title "outgoing data rate"
attr unit bps
vector 8 VideoStreamingShowcase.switch1.ieee8021q.qTagHeaderInserter flowIncomingPacketLengths:vector ETV
attr interpolationmode none
attr recordingmode vector
attr source "packetLength(demuxFlow(merge(packetPushedIn, packetPulledIn)))"
attr title "flow specific incoming packet lengths"
attr unit b
vector 9 VideoStreamingShowcase.switch1.ieee8021q.qTagHeaderInserter flowIncomingDataRate:vector ETV
attr interpolationmode linear
attr recordingmode vector
attr source "throughput(demuxFlow(merge(packetPushedIn, packetPulledIn)))"
attr title "flow specific incoming data rate"
attr unit bps
vector 10 VideoStreamingShowcase.switch1.ieee8021q.qTagHeaderInserter flowOutgoingPacketLengths:vector ETV
attr interpolationmode none
attr recordingmode vector
attr source "packetLength(demuxFlow(merge(packetPushedOut, packetPulledOut)))"
attr title "flow specific outgoing packet lengths"
attr unit b
vector 11 VideoStreamingShowcase.switch1.ieee8021q.qTagHeaderInserter flowOutgoingDataRate:vector ETV
attr interpolationmode linear
attr recordingmode vector
attr source "throughput(demuxFlow(merge(packetPushedOut, packetPulledOut)))"
attr title "flow specific outgoing data rate"
attr unit bps
vector 12 VideoStreamingShowcase.switch1.ieee8021q.qTagHeaderChecker incomingPacketLengths:vector ETV
attr interpolationmode none
attr recordingmode vector
attr source "packetLength(merge(packetPushedIn, packetPulledIn))"
attr title "incoming packet lengths"
attr unit b
vector 13 VideoStreamingShowcase.switch1.ieee8021q.qTagHeaderChecker incomingDataRate:vector ETV
attr interpolationmode linear
attr recordingmode vector
attr source "throughput(merge(packetPushedIn, packetPulledIn))"
attr title "incoming data rate"
attr unit bps
vector 14 VideoStreamingShowcase.switch1.ieee8021q.qTagHeaderChecker outgoingPacketLengths:vector ETV
attr interpolationmode none
attr recordingmode vector
attr source "packetLength(merge(packetPushedOut, packetPulledOut))"
attr title "outgoing packet lengths"
attr unit b
vector 15 VideoStreamingShowcase.switch1.ieee8021q.qTagHeaderChecker outgoingDataRate:vector ETV
attr interpolationmode linear
attr recordingmode vector
attr source "throughput(merge(packetPushedOut, packetPulledOut))"
attr title "outgoing data rate"
attr unit bps
vector 16 VideoStreamingShowcase.switch1.ieee8021q.qTagHeaderChecker droppedPacketLengths:vector ETV
attr interpolationmode none
attr recordingmode vector
attr source packetLength(packetDropped)
attr title "dropped packet lengths"
attr unit b
vector 17 VideoStreamingShowcase.switch1.ieee8021q.qTagHeaderChecker droppedDataRate:vector ETV
attr interpolationmode linear
attr recordingmode vector
attr source throughput(packetDropped)
attr title "dropped data rate"
attr unit bps
vector 18 VideoStreamingShowcase.switch1.ieee8021q.qTagHeaderChecker flowIncomingPacketLengths:vector ETV
attr interpolationmode none
attr recordingmode vector
attr source "packetLength(demuxFlow(merge(packetPushedIn, packetPulledIn)))"
attr title "flow specific incoming packet lengths"
attr unit b
vector 19 VideoStreamingShowcase.switch1.ieee8021q.qTagHeaderChecker flowIncomingDataRate:vector ETV
attr interpolationmode linear
attr recordingmode vector
attr source "throughput(demuxFlow(merge(packetPushedIn, packetPulledIn)))"
attr title "flow specific incoming data rate"
attr unit bps
vector 20 VideoStreamingShowcase.switch1.ieee8021q.qTagHeaderChecker flowOutgoingPacketLengths:vector ETV
attr interpolationmode none
attr recordingmode vector
attr source "packetLength(demuxFlow(merge(packetPushedOut, packetPulledOut)))"
attr title "flow specific outgoing packet lengths"
attr unit b
vector 21 VideoStreamingShowcase.switch1.ieee8021q.qTagHeaderChecker flowOutgoingDataRate:vector ETV
attr interpolationmode linear
attr recordingmode vector
attr source "throughput(demuxFlow(merge(packetPushedOut, packetPulledOut)))"
attr title "flow specific outgoing data rate"
attr unit bps
vector 22 VideoStreamingShowcase.switch1.ieee8021q.qTagHeaderChecker flowDroppedPacketLengths:vector ETV
attr interpolationmode none
attr recordingmode vector
attr source packetLength(demuxFlow(packetDropped))
attr title "flow specific dropped packet lengths"
attr unit b
vector 23 VideoStreamingShowcase.switch1.ieee8021q.qTagHeaderChecker flowDroppedDataRate:vector ETV
attr interpolationmode linear
attr recordingmode vector
attr source throughput(demuxFlow(packetDropped))
attr title "flow specific dropped data rate"
attr unit bps
vector 24 VideoStreamingShowcase.switch1.ieee8021r.rTagHeaderInserter incomingPacketLengths:vector ETV
attr interpolationmode none
attr recordingmode vector
attr source "packetLength(merge(packetPushedIn, packetPulledIn))"
attr title "incoming packet lengths"
attr unit b
vector 25 VideoStreamingShowcase.switch1.ieee8021r.rTagHeaderInserter incomingDataRate:vector ETV
attr interpolationmode linear
attr recordingmode vector
attr source "throughput(merge(packetPushedIn, packetPulledIn))"
attr title "incoming data rate"
attr unit bps
vector 26 VideoStreamingShowcase.switch1.ieee8021r.rTagHeaderInserter outgoingPacketLengths:vector ETV
attr interpolationmode none
attr recordingmode vector
attr source "packetLength(merge(packetPushedOut, packetPulledOut))"
attr title "outgoing packet lengths"
attr unit b
vector 27 VideoStreamingShowcase.switch1.ieee8021r.rTagHeaderInserter outgoingDataRate:vector ETV
attr interpolationmode linear
attr recordingmode vector
attr source "throughput(merge(packetPushedOut, packetPulledOut))"
attr title "outgoing data rate"
attr unit bps
vector 28 VideoStreamingShowcase.switch1.ieee8021r.rTagHeaderInserter flowIncomingPacketLengths:vector ETV
attr interpolationmode none
attr recordingmode vector
attr source "packetLength(demuxFlow(merge(packetPushedIn, packetPulledIn)))"
attr title "flow specific incoming packet lengths"
attr unit b
vector 29 VideoStreamingShowcase.switch1.ieee8021r.rTagHeaderInserter flowIncomingDataRate:vector ETV
attr interpolationmode linear
attr recordingmode vector
attr source "throughput(demuxFlow(merge(packetPushedIn, packetPulledIn)))"
attr title "flow specific incoming data rate"
attr unit bps
vector 30 VideoStreamingShowcase.switch1.ieee8021r.rTagHeaderInserter flowOutgoingPacketLengths:vector ETV
attr interpolationmode none
attr recordingmode vector
attr source "packetLength(demuxFlow(merge(packetPushedOut, packetPulledOut)))"
attr title "flow specific outgoing packet lengths"
attr unit b
vector 31 VideoStreamingShowcase.switch1.ieee8021r.rTagHeaderInserter flowOutgoingDataRate:vector ETV
attr interpolationmode linear
attr recordingmode vector
attr source "throughput(demuxFlow(merge(packetPushedOut, packetPulledOut)))"
attr title "flow specific outgoing data rate"
attr unit bps
vector 32 VideoStreamingShowcase.switch1.ieee8021r.rTagHeaderChecker incomingPacketLengths:vector ETV
attr interpolationmode none
attr recordingmode vector
attr source "packetLength(merge(packetPushedIn, packetPulledIn))"
attr title "incoming packet lengths"
attr unit b
vector 33 VideoStreamingShowcase.switch1.ieee8021r.rTagHeaderChecker incomingDataRate:vector ETV
attr interpolationmode linear
attr recordingmode vector
attr source "throughput(merge(packetPushedIn, packetPulledIn))"
attr title "incoming data rate"
attr unit bps
vector 34 VideoStreamingShowcase.switch1.ieee8021r.rTagHeaderChecker outgoingPacketLengths:vector ETV
attr interpolationmode none
attr recordingmode vector
attr source "packetLength(merge(packetPushedOut, packetPulledOut))"
attr title "outgoing packet lengths"
attr unit b
vector 35 VideoStreamingShowcase.switch1.ieee8021r.rTagHeaderChecker outgoingDataRate:vector ETV
attr interpolationmode linear
attr recordingmode vector
attr source "throughput(merge(packetPushedOut, packetPulledOut))"
attr title "outgoing data rate"
attr unit bps
vector 36 VideoStreamingShowcase.switch1.ieee8021r.rTagHeaderChecker droppedPacketLengths:vector ETV
attr interpolationmode none
attr recordingmode vector
attr source packetLength(packetDropped)
attr title "dropped packet lengths"
attr unit b
vector 37 VideoStreamingShowcase.switch1.ieee8021r.rTagHeaderChecker droppedDataRate:vector ETV
attr interpolationmode linear
attr recordingmode vector
attr source throughput(packetDropped)
attr title "dropped data rate"
attr unit bps
vector 38 VideoStreamingShowcase.switch1.ieee8021r.rTagHeaderChecker flowIncomingPacketLengths:vector ETV
attr interpolationmode none
attr recordingmode vector
attr source "packetLength(demuxFlow(merge(packetPushedIn, packetPulledIn)))"
attr title "flow specific incoming packet lengths"
attr unit b
vector 39 VideoStreamingShowcase.switch1.ieee8021r.rTagHeaderChecker flowIncomingDataRate:vector ETV
attr interpolationmode linear
attr recordingmode vector
attr source "throughput(demuxFlow(merge(packetPushedIn, packetPulledIn)))"
attr title "flow specific incoming data rate"
attr unit bps
vector 40 VideoStreamingShowcase.switch1.ieee8021r.rTagHeaderChecker flowOutgoingPacketLengths:vector ETV
attr interpolationmode none
attr recordingmode vector
attr source "packetLength(demuxFlow(merge(packetPushedOut, packetPulledOut)))"
attr title "flow specific outgoing packet lengths"
attr unit b
vector 41 VideoStreamingShowcase.switch1.ieee8021r.rTagHeaderChecker flowOutgoingDataRate:vector ETV
attr interpolationmode linear
attr recordingmode vector
attr source "throughput(demuxFlow(merge(packetPushedOut, packetPulledOut)))"
attr title "flow specific outgoing data rate"
attr unit bps
vector 42 VideoStreamingShowcase.switch1.ieee8021r.rTagHeaderChecker flowDroppedPacketLengths:vector ETV
attr interpolationmode none
attr recordingmode vector
attr source packetLength(demuxFlow(packetDropped))
attr title "flow specific dropped packet lengths"
attr unit b
vector 43 VideoStreamingShowcase.switch1.ieee8021r.rTagHeaderChecker flowDroppedDataRate:vector ETV
attr interpolationmode linear
attr recordingmode vector
attr source throughput(demuxFlow(packetDropped))
attr title "flow specific dropped data rate"
attr unit bps
vector 44 VideoStreamingShowcase.switch1.eth[0].queue queueLength:vector ETV
attr autoWarmupFilter false
attr interpolationmode sample-hold
attr recordingmode vector
attr source "warmup(atomic(constant0(packetPushEnded) + count(packetPushStarted) - count(packetPulled) - count(packetRemoved) - count(packetDropped)))"
attr title "queue length"
attr unit pk
vector 45 VideoStreamingShowcase.switch1.eth[0].queue queueBitLength:vector ETV
attr autoWarmupFilter false
attr interpolationmode sample-hold
attr recordingmode vector
attr source "warmup(atomic(constant0(packetPushEnded) + sum(packetLength(packetPushStarted)) - sum(packetLength(packetPulled)) - sum(packetLength(packetRemoved)) - sum(packetLength(packetDropped))))"
attr title "queue bit length"
attr unit b
vector 46 VideoStreamingShowcase.switch1.eth[0].queue queueingTime:vector ETV
attr interpolationmode none
attr recordingmode vector
attr source queueingTime(packetPulled)
attr title "queueing times"
attr unit s
vector 47 VideoStreamingShowcase.switch1.eth[0].queue incomingPacketLengths:vector ETV
attr interpolationmode none
attr recordingmode vector
attr source packetLength(packetPushStarted)
attr title "incoming packet lengths"
attr unit b
vector 48 VideoStreamingShowcase.switch1.eth[0].queue incomingDataRate:vector ETV
attr interpolationmode linear
attr recordingmode vector
attr source throughput(packetPushStarted)
attr title "incoming datarate"
attr unit bps
vector 49 VideoStreamingShowcase.switch1.eth[0].queue outgoingPacketLengths:vector ETV
attr interpolationmode none
attr recordingmode vector
attr source packetLength(packetPulled)
attr title "outgoing packet lengths"
attr unit b
vector 50 VideoStreamingShowcase.switch1.eth[0].queue outgoingDataRate:vector ETV
attr interpolationmode linear
attr recordingmode vector
attr source throughput(packetPulled)
attr title "outgoing datarate"
attr unit bps
vector 51 VideoStreamingShowcase.switch1.eth[0].queue droppedPacketLengthsQueueOverflow:vector ETV
attr interpolationmode none
attr recordingmode vector
attr source packetLength(packetDropReasonIsQueueOverflow(packetDropped))
attr title "dropped packet lengths: queue overflow"
attr unit b
vector 52 VideoStreamingShowcase.switch1.eth[0].queue flowQueueingTime:vector ETV
attr interpolationmode none
attr recordingmode vector
attr source queueingTime(demuxFlow(packetPulled))
attr title "flow queueing times"
attr unit s
vector 53 VideoStreamingShowcase.switch1.eth[0].queue flowIncomingDataRate:vector ETV
attr interpolationmode linear
attr recordingmode vector
attr source throughput(flowPacketLength(demuxFlow(packetPushStarted)))
attr title "flow specific incoming data rate"
attr unit bps
vector 54 VideoStreamingShowcase.switch1.eth[0].queue flowOutgoingDataRate:vector ETV
attr interpolationmode linear
attr recordingmode vector
attr source throughput(flowPacketLength(demuxFlow(packetPulled)))
attr title "flow specific outgoing data rate"
attr unit bps
vector 55 VideoStreamingShowcase.switch1.eth[0].mac txPk:vector(packetBytes) ETV
attr interpolationmode none
attr recordingmode vector(packetBytes)
attr source packetSentToLower
attr title "packets transmitted, packetBytes"
vector 56 VideoStreamingShowcase.switch1.eth[0].mac rxPkOk:vector(packetBytes) ETV
attr interpolationmode none
attr recordingmode vector(packetBytes)
attr source rxPkOk
attr title "packets received OK, packetBytes"
vector 57 VideoStreamingShowcase.switch1.eth[0].mac passedUpPk:vector(packetBytes) ETV
attr interpolationmode none
attr recordingmode vector(packetBytes)
attr source packetSentToUpper
attr title "packets passed to higher layer, packetBytes"
vector 58 VideoStreamingShowcase.switch1.eth[0].mac txPausePkUnits:vector ETV
attr interpolationmode none
attr recordingmode vector
attr title "pause units sent"
vector 59 VideoStreamingShowcase.switch1.eth[0].mac rxPausePkUnits:vector ETV
attr interpolationmode none
attr recordingmode vector
attr title "pause units received"
vector 60 VideoStreamingShowcase.switch1.eth[0].mac packetReceivedFromUpper:vector(packetBytes) ETV
attr interpolationmode none
attr recordingmode vector(packetBytes)
attr source packetReceivedFromUpper
attr title "packet bytes from higher layer, packetBytes"
vector 61 VideoStreamingShowcase.switch1.eth[0].mac packetDropIncorrectlyReceived:vector(packetBytes) ETV
attr interpolationmode none
attr recordingmode vector(packetBytes)
attr source packetDropReasonIsIncorrectlyReceived(packetDropped)
attr title "packet drop: incorrectly received, packetBytes"
vector 62 VideoStreamingShowcase.switch1.eth[0].mac packetDropInterfaceDown:vector(packetBytes) ETV
attr interpolationmode none
attr recordingmode vector(packetBytes)
attr source packetDropReasonIsInterfaceDown(packetDropped)
attr title "packet drop: interface down, packetBytes"
vector 63 VideoStreamingShowcase.switch1.eth[0].mac packetDropNotAddressedToUs:vector(packetBytes) ETV
attr interpolationmode none
attr recordingmode vector(packetBytes)
attr source packetDropReasonIsNotAddressedToUs(packetDropped)
attr title "packet drop: not addressed to us, packetBytes"
vector 64 VideoStreamingShowcase.switch1.eth[0] packetDropInterfaceDown:vector(packetBytes) ETV
attr interpolationmode none
attr recordingmode vector(packetBytes)
attr source packetDropReasonIsInterfaceDown(packetDropped)
attr title "packet drops: interface down, packetBytes"
vector 65 VideoStreamingShowcase.switch1.eth[0] packetDropNoCarrier:vector(packetBytes) ETV
attr interpolationmode none
attr recordingmode vector(packetBytes)
attr source packetDropReasonIsNoCarrier(packetDropped)
attr title "packet drops: no carrier, packetBytes"
vector 66 VideoStreamingShowcase.switch1.eth[1].queue queueLength:vector ETV
attr autoWarmupFilter false
attr interpolationmode sample-hold
attr recordingmode vector
attr source "warmup(atomic(constant0(packetPushEnded) + count(packetPushStarted) - count(packetPulled) - count(packetRemoved) - count(packetDropped)))"
attr title "queue length"
attr unit pk
vector 67 VideoStreamingShowcase.switch1.eth[1].queue queueBitLength:vector ETV
attr autoWarmupFilter false
attr interpolationmode sample-hold
attr recordingmode vector
attr source "warmup(atomic(constant0(packetPushEnded) + sum(packetLength(packetPushStarted)) - sum(packetLength(packetPulled)) - sum(packetLength(packetRemoved)) - sum(packetLength(packetDropped))))"
attr title "queue bit length"
attr unit b
vector 68 VideoStreamingShowcase.switch1.eth[1].queue queueingTime:vector ETV
attr interpolationmode none
attr recordingmode vector
attr source queueingTime(packetPulled)
attr title "queueing times"
attr unit s
vector 69 VideoStreamingShowcase.switch1.eth[1].queue incomingPacketLengths:vector ETV
attr interpolationmode none
attr recordingmode vector
attr source packetLength(packetPushStarted)
attr title "incoming packet lengths"
attr unit b
vector 70 VideoStreamingShowcase.switch1.eth[1].queue incomingDataRate:vector ETV
attr interpolationmode linear
attr recordingmode vector
attr source throughput(packetPushStarted)
attr title "incoming datarate"
attr unit bps
vector 71 VideoStreamingShowcase.switch1.eth[1].queue outgoingPacketLengths:vector ETV
attr interpolationmode none
attr recordingmode vector
attr source packetLength(packetPulled)
attr title "outgoing packet lengths"
attr unit b
vector 72 VideoStreamingShowcase.switch1.eth[1].queue outgoingDataRate:vector ETV
attr interpolationmode linear
attr recordingmode vector
attr source throughput(packetPulled)
attr title "outgoing datarate"
attr unit bps
vector 73 VideoStreamingShowcase.switch1.eth[1].queue droppedPacketLengthsQueueOverflow:vector ETV
attr interpolationmode none
attr recordingmode vector
attr source packetLength(packetDropReasonIsQueueOverflow(packetDropped))
attr title "dropped packet lengths: queue overflow"
attr unit b
vector 74 VideoStreamingShowcase.switch1.eth[1].queue flowQueueingTime:vector ETV
attr interpolationmode none
attr recordingmode vector
attr source queueingTime(demuxFlow(packetPulled))
attr title "flow queueing times"
attr unit s
vector 75 VideoStreamingShowcase.switch1.eth[1].queue flowIncomingDataRate:vector ETV
attr interpolationmode linear
attr recordingmode vector
attr source throughput(flowPacketLength(demuxFlow(packetPushStarted)))
attr title "flow specific incoming data rate"
attr unit bps
vector 76 VideoStreamingShowcase.switch1.eth[1].queue flowOutgoingDataRate:vector ETV
attr interpolationmode linear
attr recordingmode vector
attr source throughput(flowPacketLength(demuxFlow(packetPulled)))
attr title "flow specific outgoing data rate"
attr unit bps
vector 77 VideoStreamingShowcase.switch1.eth[1].mac txPk:vector(packetBytes) ETV
attr interpolationmode none
attr recordingmode vector(packetBytes)
attr source packetSentToLower
attr title "packets transmitted, packetBytes"
vector 78 VideoStreamingShowcase.switch1.eth[1].mac rxPkOk:vector(packetBytes) ETV
attr interpolationmode none
attr recordingmode vector(packetBytes)
attr source rxPkOk
attr title "packets received OK, packetBytes"
vector 79 VideoStreamingShowcase.switch1.eth[1].mac passedUpPk:vector(packetBytes) ETV
attr interpolationmode none
attr recordingmode vector(packetBytes)
attr source packetSentToUpper
attr title "packets passed to higher layer, packetBytes"
vector 80 VideoStreamingShowcase.switch1.eth[1].mac txPausePkUnits:vector ETV
attr interpolationmode none
attr recordingmode vector
attr title "pause units sent"
vector 81 VideoStreamingShowcase.switch1.eth[1].mac rxPausePkUnits:vector ETV
attr interpolationmode none
attr recordingmode vector
attr title "pause units received"
vector 82 VideoStreamingShowcase.switch1.eth[1].mac packetReceivedFromUpper:vector(packetBytes) ETV
attr interpolationmode none
attr recordingmode vector(packetBytes)
attr source packetReceivedFromUpper
attr title "packet bytes from higher layer, packetBytes"
vector 83 VideoStreamingShowcase.switch1.eth[1].mac packetDropIncorrectlyReceived:vector(packetBytes) ETV
attr interpolationmode none
attr recordingmode vector(packetBytes)
attr source packetDropReasonIsIncorrectlyReceived(packetDropped)
attr title "packet drop: incorrectly received, packetBytes"
vector 84 VideoStreamingShowcase.switch1.eth[1].mac packetDropInterfaceDown:vector(packetBytes) ETV
attr interpolationmode none
attr recordingmode vector(packetBytes)
attr source packetDropReasonIsInterfaceDown(packetDropped)
attr title "packet drop: interface down, packetBytes"
vector 85 VideoStreamingShowcase.switch1.eth[1].mac packetDropNotAddressedToUs:vector(packetBytes) ETV
attr interpolationmode none
attr recordingmode vector(packetBytes)
attr source packetDropReasonIsNotAddressedToUs(packetDropped)
attr title "packet drop: not addressed to us, packetBytes"
vector 86 VideoStreamingShowcase.switch1.eth[1] packetDropInterfaceDown:vector(packetBytes) ETV
attr interpolationmode none
attr recordingmode vector(packetBytes)
attr source packetDropReasonIsInterfaceDown(packetDropped)
attr title "packet drops: interface down, packetBytes"
vector 87 VideoStreamingShowcase.switch1.eth[1] packetDropNoCarrier:vector(packetBytes) ETV
attr interpolationmode none
attr recordingmode vector(packetBytes)
attr source packetDropReasonIsNoCarrier(packetDropped)
attr title "packet drops: no carrier, packetBytes"
vector 88 VideoStreamingShowcase.switch2.bridging packetDropped:vector(packetBytes) ETV
attr interpolationmode none
attr recordingmode vector(packetBytes)
attr title "packets dropped, packetBytes"
vector 89 VideoStreamingShowcase.switch2.ethernet encapPk:vector(packetBytes) ETV
attr interpolationmode none
attr recordingmode vector(packetBytes)
attr source encapPk
attr title "packets encapsulated, packetBytes"
vector 90 VideoStreamingShowcase.switch2.ethernet decapPk:vector(packetBytes) ETV
attr interpolationmode none
attr recordingmode vector(packetBytes)
attr source decapPk
attr title "packets decapsulated, packetBytes"
vector 91 VideoStreamingShowcase.switch2.ethernet pauseSent:vector ETV
attr recordingmode vector
attr title "pause sent"
vector 92 VideoStreamingShowcase.switch2.ieee8021q.qTagHeaderInserter incomingPacketLengths:vector ETV
attr interpolationmode none
attr recordingmode vector
attr source "packetLength(merge(packetPushedIn, packetPulledIn))"
attr title "incoming packet lengths"
attr unit b
vector 93 VideoStreamingShowcase.switch2.ieee8021q.qTagHeaderInserter incomingDataRate:vector ETV
attr interpolationmode linear
attr recordingmode vector
attr source "throughput(merge(packetPushedIn, packetPulledIn))"
attr title "incoming data rate"
attr unit bps
vector 94 VideoStreamingShowcase.switch2.ieee8021q.qTagHeaderInserter outgoingPacketLengths:vector ETV
attr interpolationmode none
attr recordingmode vector
attr source "packetLength(merge(packetPushedOut, packetPulledOut))"
attr title "outgoing packet lengths"
attr unit b
vector 95 VideoStreamingShowcase.switch2.ieee8021q.qTagHeaderInserter outgoingDataRate:vector ETV
attr interpolationmode linear
attr recordingmode vector
attr source "throughput(merge(packetPushedOut, packetPulledOut))"
attr title "outgoing data rate"
attr unit bps
vector 96 VideoStreamingShowcase.switch2.ieee8021q.qTagHeaderInserter flowIncomingPacketLengths:vector ETV
attr interpolationmode none
attr recordingmode vector
attr source "packetLength(demuxFlow(merge(packetPushedIn, packetPulledIn)))"
attr title "flow specific incoming packet lengths"
attr unit b
vector 97 VideoStreamingShowcase.switch2.ieee8021q.qTagHeaderInserter flowIncomingDataRate:vector ETV
attr interpolationmode linear
attr recordingmode vector
attr source "throughput(demuxFlow(merge(packetPushedIn, packetPulledIn)))"
attr title "flow specific incoming data rate"
attr unit bps
vector 98 VideoStreamingShowcase.switch2.ieee8021q.qTagHeaderInserter flowOutgoingPacketLengths:vector ETV
attr interpolationmode none
attr recordingmode vector
attr source "packetLength(demuxFlow(merge(packetPushedOut, packetPulledOut)))"
attr title "flow specific outgoing packet lengths"
attr unit b
vector 99 VideoStreamingShowcase.switch2.ieee8021q.qTagHeaderInserter flowOutgoingDataRate:vector ETV
attr interpolationmode linear
attr recordingmode vector
attr source "throughput(demuxFlow(merge(packetPushedOut, packetPulledOut)))"
attr title "flow specific outgoing data rate"
attr unit bps
vector 100 VideoStreamingShowcase.switch2.ieee8021q.qTagHeaderChecker incomingPacketLengths:vector ETV
attr interpolationmode none
attr recordingmode vector
attr source "packetLength(merge(packetPushedIn, packetPulledIn))"
attr title "incoming packet lengths"
attr unit b
vector 101 VideoStreamingShowcase.switch2.ieee8021q.qTagHeaderChecker incomingDataRate:vector ETV
attr interpolationmode linear
attr recordingmode vector
attr source "throughput(merge(packetPushedIn, packetPulledIn))"
attr title "incoming data rate"
attr unit bps
vector 102 VideoStreamingShowcase.switch2.ieee8021q.qTagHeaderChecker outgoingPacketLengths:vector ETV
attr interpolationmode none
attr recordingmode vector
attr source "packetLength(merge(packetPushedOut, packetPulledOut))"
attr title "outgoing packet lengths"
attr unit b
vector 103 VideoStreamingShowcase.switch2.ieee8021q.qTagHeaderChecker outgoingDataRate:vector ETV
attr interpolationmode linear
attr recordingmode vector
attr source "throughput(merge(packetPushedOut, packetPulledOut))"
attr title "outgoing data rate"
attr unit bps
vector 104 VideoStreamingShowcase.switch2.ieee8021q.qTagHeaderChecker droppedPacketLengths:vector ETV
attr interpolationmode none
attr recordingmode vector
attr source packetLength(packetDropped)
attr title "dropped packet lengths"
attr unit b
vector 105 VideoStreamingShowcase.switch2.ieee8021q.qTagHeaderChecker droppedDataRate:vector ETV
attr interpolationmode linear
attr recordingmode vector
attr source throughput(packetDropped)
attr title "dropped data rate"
attr unit bps
vector 106 VideoStreamingShowcase.switch2.ieee8021q.qTagHeaderChecker flowIncomingPacketLengths:vector ETV
attr interpolationmode none
attr recordingmode vector
attr source "packetLength(demuxFlow(merge(packetPushedIn, packetPulledIn)))"
attr title "flow specific incoming packet lengths"
attr unit b
vector 107 VideoStreamingShowcase.switch2.ieee8021q.qTagHeaderChecker flowIncomingDataRate:vector ETV
attr interpolationmode linear
attr recordingmode vector
attr source "throughput(demuxFlow(merge(packetPushedIn, packetPulledIn)))"
attr title "flow specific incoming data rate"
attr unit bps
vector 108 VideoStreamingShowcase.switch2.ieee8021q.qTagHeaderChecker flowOutgoingPacketLengths:vector ETV
attr interpolationmode none
attr recordingmode vector
attr source "packetLength(demuxFlow(merge(packetPushedOut, packetPulledOut)))"
attr title "flow specific outgoing packet lengths"
attr unit b
vector 109 VideoStreamingShowcase.switch2.ieee8021q.qTagHeaderChecker flowOutgoingDataRate:vector ETV
attr interpolationmode linear
attr recordingmode vector
attr source "throughput(demuxFlow(merge(packetPushedOut, packetPulledOut)))"
attr title "flow specific outgoing data rate"
attr unit bps
vector 110 VideoStreamingShowcase.switch2.ieee8021q.qTagHeaderChecker flowDroppedPacketLengths:vector ETV
attr interpolationmode none
attr recordingmode vector
attr source packetLength(demuxFlow(packetDropped))
attr title "flow specific dropped packet lengths"
attr unit b
vector 111 VideoStreamingShowcase.switch2.ieee8021q.qTagHeaderChecker flowDroppedDataRate:vector ETV
attr interpolationmode linear
attr recordingmode vector
attr source throughput(demuxFlow(packetDropped))
attr title "flow specific dropped data rate"
attr unit bps
vector 112 VideoStreamingShowcase.switch2.ieee8021r.rTagHeaderInserter incomingPacketLengths:vector ETV
attr interpolationmode none
attr recordingmode vector
attr source "packetLength(merge(packetPushedIn, packetPulledIn))"
attr title "incoming packet lengths"
attr unit b
vector 113 VideoStreamingShowcase.switch2.ieee8021r.rTagHeaderInserter incomingDataRate:vector ETV
attr interpolationmode linear
attr recordingmode vector
attr source "throughput(merge(packetPushedIn, packetPulledIn))"
attr title "incoming data rate"
attr unit bps
vector 114 VideoStreamingShowcase.switch2.ieee8021r.rTagHeaderInserter outgoingPacketLengths:vector ETV
attr interpolationmode none
attr recordingmode vector
attr source "packetLength(merge(packetPushedOut, packetPulledOut))"
attr title "outgoing packet lengths"
attr unit b
vector 115 VideoStreamingShowcase.switch2.ieee8021r.rTagHeaderInserter outgoingDataRate:vector ETV
attr interpolationmode linear
attr recordingmode vector
attr source "throughput(merge(packetPushedOut, packetPulledOut))"
attr title "outgoing data rate"
attr unit bps
vector 116 VideoStreamingShowcase.switch2.ieee8021r.rTagHeaderInserter flowIncomingPacketLengths:vector ETV
attr interpolationmode none
attr recordingmode vector
attr source "packetLength(demuxFlow(merge(packetPushedIn, packetPulledIn)))"
attr title "flow specific incoming packet lengths"
attr unit b
vector 117 VideoStreamingShowcase.switch2.ieee8021r.rTagHeaderInserter flowIncomingDataRate:vector ETV
attr interpolationmode linear
attr recordingmode vector
attr source "throughput(demuxFlow(merge(packetPushedIn, packetPulledIn)))"
attr title "flow specific incoming data rate"
attr unit bps
vector 118 VideoStreamingShowcase.switch2.ieee8021r.rTagHeaderInserter flowOutgoingPacketLengths:vector ETV
attr interpolationmode none
attr recordingmode vector
attr source "packetLength(demuxFlow(merge(packetPushedOut, packetPulledOut)))"
attr title "flow specific outgoing packet lengths"
attr unit b
vector 119 VideoStreamingShowcase.switch2.ieee8021r.rTagHeaderInserter flowOutgoingDataRate:vector ETV
attr interpolationmode linear
attr recordingmode vector
attr source "throughput(demuxFlow(merge(packetPushedOut, packetPulledOut)))"
attr title "flow specific outgoing data rate"
attr unit bps
vector 120 VideoStreamingShowcase.switch2.ieee8021r.rTagHeaderChecker incomingPacketLengths:vector ETV
attr interpolationmode none
attr recordingmode vector
attr source "packetLength(merge(packetPushedIn, packetPulledIn))"
attr title "incoming packet lengths"
attr unit b
vector 121 VideoStreamingShowcase.switch2.ieee8021r.rTagHeaderChecker incomingDataRate:vector ETV
attr interpolationmode linear
attr recordingmode vector
attr source "throughput(merge(packetPushedIn, packetPulledIn))"
attr title "incoming data rate"
attr unit bps
vector 122 VideoStreamingShowcase.switch2.ieee8021r.rTagHeaderChecker outgoingPacketLengths:vector ETV
attr interpolationmode none
attr recordingmode vector
attr source "packetLength(merge(packetPushedOut, packetPulledOut))"
attr title "outgoing packet lengths"
attr unit b
vector 123 VideoStreamingShowcase.switch2.ieee8021r.rTagHeaderChecker outgoingDataRate:vector ETV
attr interpolationmode linear
attr recordingmode vector
attr source "throughput(merge(packetPushedOut, packetPulledOut))"
attr title "outgoing data rate"
attr unit bps
vector 124 VideoStreamingShowcase.switch2.ieee8021r.rTagHeaderChecker droppedPacketLengths:vector ETV
attr interpolationmode none
attr recordingmode vector
attr source packetLength(packetDropped)
attr title "dropped packet lengths"
attr unit b
vector 125 VideoStreamingShowcase.switch2.ieee8021r.rTagHeaderChecker droppedDataRate:vector ETV
attr interpolationmode linear
attr recordingmode vector
attr source throughput(packetDropped)
attr title "dropped data rate"
attr unit bps
vector 126 VideoStreamingShowcase.switch2.ieee8021r.rTagHeaderChecker flowIncomingPacketLengths:vector ETV
attr interpolationmode none
attr recordingmode vector
attr source "packetLength(demuxFlow(merge(packetPushedIn, packetPulledIn)))"
attr title "flow specific incoming packet lengths"
attr unit b
vector 127 VideoStreamingShowcase.switch2.ieee8021r.rTagHeaderChecker flowIncomingDataRate:vector ETV
attr interpolationmode linear
attr recordingmode vector
attr source "throughput(demuxFlow(merge(packetPushedIn, packetPulledIn)))"
attr title "flow specific incoming data rate"
attr unit bps
vector 128 VideoStreamingShowcase.switch2.ieee8021r.rTagHeaderChecker flowOutgoingPacketLengths:vector ETV
attr interpolationmode none
attr recordingmode vector
attr source "packetLength(demuxFlow(merge(packetPushedOut, packetPulledOut)))"
attr title "flow specific outgoing packet lengths"
attr unit b
vector 129 VideoStreamingShowcase.switch2.ieee8021r.rTagHeaderChecker flowOutgoingDataRate:vector ETV
attr interpolationmode linear
attr recordingmode vector
attr source "throughput(demuxFlow(merge(packetPushedOut, packetPulledOut)))"
attr title "flow specific outgoing data rate"
attr unit bps
vector 130 VideoStreamingShowcase.switch2.ieee8021r.rTagHeaderChecker flowDroppedPacketLengths:vector ETV
attr interpolationmode none
attr recordingmode vector
attr source packetLength(demuxFlow(packetDropped))
attr title "flow specific dropped packet lengths"
attr unit b
vector 131 VideoStreamingShowcase.switch2.ieee8021r.rTagHeaderChecker flowDroppedDataRate:vector ETV
attr interpolationmode linear
attr recordingmode vector
attr source throughput(demuxFlow(packetDropped))
attr title "flow specific dropped data rate"
attr unit bps
vector 132 VideoStreamingShowcase.switch2.eth[0].queue queueLength:vector ETV
attr autoWarmupFilter false
attr interpolationmode sample-hold
attr recordingmode vector
attr source "warmup(atomic(constant0(packetPushEnded) + count(packetPushStarted) - count(packetPulled) - count(packetRemoved) - count(packetDropped)))"
attr title "queue length"
attr unit pk
vector 133 VideoStreamingShowcase.switch2.eth[0].queue queueBitLength:vector ETV
attr autoWarmupFilter false
attr interpolationmode sample-hold
attr recordingmode vector
attr source "warmup(atomic(constant0(packetPushEnded) + sum(packetLength(packetPushStarted)) - sum(packetLength(packetPulled)) - sum(packetLength(packetRemoved)) - sum(packetLength(packetDropped))))"
attr title "queue bit length"
attr unit b
vector 134 VideoStreamingShowcase.switch2.eth[0].queue queueingTime:vector ETV
attr interpolationmode none
attr recordingmode vector
attr source queueingTime(packetPulled)
attr title "queueing times"
attr unit s
vector 135 VideoStreamingShowcase.switch2.eth[0].queue incomingPacketLengths:vector ETV
attr interpolationmode none
attr recordingmode vector
attr source packetLength(packetPushStarted)
attr title "incoming packet lengths"
attr unit b
vector 136 VideoStreamingShowcase.switch2.eth[0].queue incomingDataRate:vector ETV
attr interpolationmode linear
attr recordingmode vector
attr source throughput(packetPushStarted)
attr title "incoming datarate"
attr unit bps
vector 137 VideoStreamingShowcase.switch2.eth[0].queue outgoingPacketLengths:vector ETV
attr interpolationmode none
attr recordingmode vector
attr source packetLength(packetPulled)
attr title "outgoing packet lengths"
attr unit b
vector 138 VideoStreamingShowcase.switch2.eth[0].queue outgoingDataRate:vector ETV
attr interpolationmode linear
attr recordingmode vector
attr source throughput(packetPulled)
attr title "outgoing datarate"
attr unit bps
vector 139 VideoStreamingShowcase.switch2.eth[0].queue droppedPacketLengthsQueueOverflow:vector ETV
attr interpolationmode none
attr recordingmode vector
attr source packetLength(packetDropReasonIsQueueOverflow(packetDropped))
attr title "dropped packet lengths: queue overflow"
attr unit b
vector 140 VideoStreamingShowcase.switch2.eth[0].queue flowQueueingTime:vector ETV
attr interpolationmode none
attr recordingmode vector
attr source queueingTime(demuxFlow(packetPulled))
attr title "flow queueing times"
attr unit s
vector 141 VideoStreamingShowcase.switch2.eth[0].queue flowIncomingDataRate:vector ETV
attr interpolationmode linear
attr recordingmode vector
attr source throughput(flowPacketLength(demuxFlow(packetPushStarted)))
attr title "flow specific incoming data rate"
attr unit bps
vector 142 VideoStreamingShowcase.switch2.eth[0].queue flowOutgoingDataRate:vector ETV
attr interpolationmode linear
attr recordingmode vector
attr source throughput(flowPacketLength(demuxFlow(packetPulled)))
attr title "flow specific outgoing data rate"
attr unit bps
vector 143 VideoStreamingShowcase.switch2.eth[0].mac txPk:vector(packetBytes) ETV
attr interpolationmode none
attr recordingmode vector(packetBytes)
attr source packetSentToLower
attr title "packets transmitted, packetBytes"
vector 144 VideoStreamingShowcase.switch2.eth[0].mac rxPkOk:vector(packetBytes) ETV
attr interpolationmode none
attr recordingmode vector(packetBytes)
attr source rxPkOk
attr title "packets received OK, packetBytes"
vector 145 VideoStreamingShowcase.switch2.eth[0].mac passedUpPk:vector(packetBytes) ETV
attr interpolationmode none
attr recordingmode vector(packetBytes)
attr source packetSentToUpper
attr title "packets passed to higher layer, packetBytes"
vector 146 VideoStreamingShowcase.switch2.eth[0].mac txPausePkUnits:vector ETV
attr interpolationmode none
attr recordingmode vector
attr title "pause units sent"
vector 147 VideoStreamingShowcase.switch2.eth[0].mac rxPausePkUnits:vector ETV
attr interpolationmode none
attr recordingmode vector
attr title "pause units received"
vector 148 VideoStreamingShowcase.switch2.eth[0].mac packetReceivedFromUpper:vector(packetBytes) ETV
attr interpolationmode none
attr recordingmode vector(packetBytes)
attr source packetReceivedFromUpper
attr title "packet bytes from higher layer, packetBytes"
vector 149 VideoStreamingShowcase.switch2.eth[0].mac packetDropIncorrectlyReceived:vector(packetBytes) ETV
attr interpolationmode none
attr recordingmode vector(packetBytes)
attr source packetDropReasonIsIncorrectlyReceived(packetDropped)
attr title "packet drop: incorrectly received, packetBytes"
vector 150 VideoStreamingShowcase.switch2.eth[0].mac packetDropInterfaceDown:vector(packetBytes) ETV
attr interpolationmode none
attr recordingmode vector(packetBytes)
attr source packetDropReasonIsInterfaceDown(packetDropped)
attr title "packet drop: interface down, packetBytes"
vector 151 VideoStreamingShowcase.switch2.eth[0].mac packetDropNotAddressedToUs:vector(packetBytes) ETV
attr interpolationmode none
attr recordingmode vector(packetBytes)
attr source packetDropReasonIsNotAddressedToUs(packetDropped)
attr title "packet drop: not addressed to us, packetBytes"
vector 152 VideoStreamingShowcase.switch2.eth[0] packetDropInterfaceDown:vector(packetBytes) ETV
attr interpolationmode none
attr recordingmode vector(packetBytes)
attr source packetDropReasonIsInterfaceDown(packetDropped)
attr title "packet drops: interface down, packetBytes"
vector 153 VideoStreamingShowcase.switch2.eth[0] packetDropNoCarrier:vector(packetBytes) ETV
attr interpolationmode none
attr recordingmode vector(packetBytes)
attr source packetDropReasonIsNoCarrier(packetDropped)
attr title "packet drops: no carrier, packetBytes"
vector 154 VideoStreamingShowcase.switch2.eth[1].queue queueLength:vector ETV
attr autoWarmupFilter false
attr interpolationmode sample-hold
attr recordingmode vector
attr source "warmup(atomic(constant0(packetPushEnded) + count(packetPushStarted) - count(packetPulled) - count(packetRemoved) - count(packetDropped)))"
attr title "queue length"
attr unit pk
vector 155 VideoStreamingShowcase.switch2.eth[1].queue queueBitLength:vector ETV
attr autoWarmupFilter false
attr interpolationmode sample-hold
attr recordingmode vector
attr source "warmup(atomic(constant0(packetPushEnded) + sum(packetLength(packetPushStarted)) - sum(packetLength(packetPulled)) - sum(packetLength(packetRemoved)) - sum(packetLength(packetDropped))))"
attr title "queue bit length"
attr unit b
vector 156 VideoStreamingShowcase.switch2.eth[1].queue queueingTime:vector ETV
attr interpolationmode none
attr recordingmode vector
attr source queueingTime(packetPulled)
attr title "queueing times"
attr unit s
vector 157 VideoStreamingShowcase.switch2.eth[1].queue incomingPacketLengths:vector ETV
attr interpolationmode none
attr recordingmode vector
attr source packetLength(packetPushStarted)
attr title "incoming packet lengths"
attr unit b
vector 158 VideoStreamingShowcase.switch2.eth[1].queue incomingDataRate:vector ETV
attr interpolationmode linear
attr recordingmode vector
attr source throughput(packetPushStarted)
attr title "incoming datarate"
attr unit bps
vector 159 VideoStreamingShowcase.switch2.eth[1].queue outgoingPacketLengths:vector ETV
attr interpolationmode none
attr recordingmode vector
attr source packetLength(packetPulled)
attr title "outgoing packet lengths"
attr unit b
vector 160 VideoStreamingShowcase.switch2.eth[1].queue outgoingDataRate:vector ETV
attr interpolationmode linear
attr recordingmode vector
attr source throughput(packetPulled)
attr title "outgoing datarate"
attr unit bps
vector 161 VideoStreamingShowcase.switch2.eth[1].queue droppedPacketLengthsQueueOverflow:vector ETV
attr interpolationmode none
attr recordingmode vector
attr source packetLength(packetDropReasonIsQueueOverflow(packetDropped))
attr title "dropped packet lengths: queue overflow"
attr unit b
vector 162 VideoStreamingShowcase.switch2.eth[1].queue flowQueueingTime:vector ETV
attr interpolationmode none
attr recordingmode vector
attr source queueingTime(demuxFlow(packetPulled))
attr title "flow queueing times"
attr unit s
vector 163 VideoStreamingShowcase.switch2.eth[1].queue flowIncomingDataRate:vector ETV
attr interpolationmode linear
attr recordingmode vector
attr source throughput(flowPacketLength(demuxFlow(packetPushStarted)))
attr title "flow specific incoming data rate"
attr unit bps
vector 164 VideoStreamingShowcase.switch2.eth[1].queue flowOutgoingDataRate:vector ETV
attr interpolationmode linear
attr recordingmode vector
attr source throughput(flowPacketLength(demuxFlow(packetPulled)))
attr title "flow specific outgoing data rate"
attr unit bps
vector 165 VideoStreamingShowcase.switch2.eth[1].mac txPk:vector(packetBytes) ETV
attr interpolationmode none
attr recordingmode vector(packetBytes)
attr source packetSentToLower
attr title "packets transmitted, packetBytes"
vector 166 VideoStreamingShowcase.switch2.eth[1].mac rxPkOk:vector(packetBytes) ETV
attr interpolationmode none
attr recordingmode vector(packetBytes)
attr source rxPkOk
attr title "packets received OK, packetBytes"
vector 167 VideoStreamingShowcase.switch2.eth[1].mac passedUpPk:vector(packetBytes) ETV
attr interpolationmode none
attr recordingmode vector(packetBytes)
attr source packetSentToUpper
attr title "packets passed to higher layer, packetBytes"
vector 168 VideoStreamingShowcase.switch2.eth[1].mac txPausePkUnits:vector ETV
attr interpolationmode none
attr recordingmode vector
attr title "pause units sent"
vector 169 VideoStreamingShowcase.switch2.eth[1].mac rxPausePkUnits:vector ETV
attr interpolationmode none
attr recordingmode vector
attr title "pause units received"
vector 170 VideoStreamingShowcase.switch2.eth[1].mac packetReceivedFromUpper:vector(packetBytes) ETV
attr interpolationmode none
attr recordingmode vector(packetBytes)
attr source packetReceivedFromUpper
attr title "packet bytes from higher layer, packetBytes"
vector 171 VideoStreamingShowcase.switch2.eth[1].mac packetDropIncorrectlyReceived:vector(packetBytes) ETV
attr interpolationmode none
attr recordingmode vector(packetBytes)
attr source packetDropReasonIsIncorrectlyReceived(packetDropped)
attr title "packet drop: incorrectly received, packetBytes"
vector 172 VideoStreamingShowcase.switch2.eth[1].mac packetDropInterfaceDown:vector(packetBytes) ETV
attr interpolationmode none
attr recordingmode vector(packetBytes)
attr source packetDropReasonIsInterfaceDown(packetDropped)
attr title "packet drop: interface down, packetBytes"
vector 173 VideoStreamingShowcase.switch2.eth[1].mac packetDropNotAddressedToUs:vector(packetBytes) ETV
attr interpolationmode none
attr recordingmode vector(packetBytes)
attr source packetDropReasonIsNotAddressedToUs(packetDropped)
attr title "packet drop: not addressed to us, packetBytes"
vector 174 VideoStreamingShowcase.switch2.eth[1] packetDropInterfaceDown:vector(packetBytes) ETV
attr interpolationmode none
attr recordingmode vector(packetBytes)
attr source packetDropReasonIsInterfaceDown(packetDropped)
attr title "packet drops: interface down, packetBytes"
vector 175 VideoStreamingShowcase.switch2.eth[1] packetDropNoCarrier:vector(packetBytes) ETV
attr interpolationmode none
attr recordingmode vector(packetBytes)
attr source packetDropReasonIsNoCarrier(packetDropped)
attr title "packet drops: no carrier, packetBytes"
vector 176 VideoStreamingShowcase.router.ethernet encapPk:vector(packetBytes) ETV
attr interpolationmode none
attr recordingmode vector(packetBytes)
attr source encapPk
attr title "packets encapsulated, packetBytes"
vector 177 VideoStreamingShowcase.router.ethernet decapPk:vector(packetBytes) ETV
attr interpolationmode none
attr recordingmode vector(packetBytes)
attr source decapPk
attr title "packets decapsulated, packetBytes"
vector 178 VideoStreamingShowcase.router.ethernet pauseSent:vector ETV
attr recordingmode vector
attr title "pause sent"
vector 179 VideoStreamingShowcase.router.lo[0].lo rcvdPkFromHl:vector(packetBytes) ETV
attr interpolationmode none
attr recordingmode vector(packetBytes)
attr source packetReceivedFromUpper
attr title "packets received from higher layer, packetBytes"
vector 180 VideoStreamingShowcase.router.lo[0].lo passedUpPk:vector(packetBytes) ETV
attr interpolationmode none
attr recordingmode vector(packetBytes)
attr source packetSentToUpper
attr title "packets passed to higher layer, packetBytes"
vector 181 VideoStreamingShowcase.router.lo[0] packetDropInterfaceDown:vector(packetBytes) ETV
attr interpolationmode none
attr recordingmode vector(packetBytes)
attr source packetDropReasonIsInterfaceDown(packetDropped)
attr title "packet drops: interface down, packetBytes"
vector 182 VideoStreamingShowcase.router.lo[0] packetDropNoCarrier:vector(packetBytes) ETV
attr interpolationmode none
attr recordingmode vector(packetBytes)
attr source packetDropReasonIsNoCarrier(packetDropped)
attr title "packet drops: no carrier, packetBytes"
vector 183 VideoStreamingShowcase.router.eth[0].queue queueLength:vector ETV
attr autoWarmupFilter false
attr interpolationmode sample-hold
attr recordingmode vector
attr source "warmup(atomic(constant0(packetPushEnded) + count(packetPushStarted) - count(packetPulled) - count(packetRemoved) - count(packetDropped)))"
attr title "queue length"
attr unit pk
vector 184 VideoStreamingShowcase.router.eth[0].queue queueBitLength:vector ETV
attr autoWarmupFilter false
attr interpolationmode sample-hold
attr recordingmode vector
attr source "warmup(atomic(constant0(packetPushEnded) + sum(packetLength(packetPushStarted)) - sum(packetLength(packetPulled)) - sum(packetLength(packetRemoved)) - sum(packetLength(packetDropped))))"
attr title "queue bit length"
attr unit b
vector 185 VideoStreamingShowcase.router.eth[0].queue queueingTime:vector ETV
attr interpolationmode none
attr recordingmode vector
attr source queueingTime(packetPulled)
attr title "queueing times"
attr unit s
vector 186 VideoStreamingShowcase.router.eth[0].queue incomingPacketLengths:vector ETV
attr interpolationmode none
attr recordingmode vector
attr source packetLength(packetPushStarted)
attr title "incoming packet lengths"
attr unit b
vector 187 VideoStreamingShowcase.router.eth[0].queue incomingDataRate:vector ETV
attr interpolationmode linear
attr recordingmode vector
attr source throughput(packetPushStarted)
attr title "incoming datarate"
attr unit bps
vector 188 VideoStreamingShowcase.router.eth[0].queue outgoingPacketLengths:vector ETV
attr interpolationmode none
attr recordingmode vector
attr source packetLength(packetPulled)
attr title "outgoing packet lengths"
attr unit b
vector 189 VideoStreamingShowcase.router.eth[0].queue outgoingDataRate:vector ETV
attr interpolationmode linear
attr recordingmode vector
attr source throughput(packetPulled)
attr title "outgoing datarate"
attr unit bps
vector 190 VideoStreamingShowcase.router.eth[0].queue droppedPacketLengthsQueueOverflow:vector ETV
attr interpolationmode none
attr recordingmode vector
attr source packetLength(packetDropReasonIsQueueOverflow(packetDropped))
attr title "dropped packet lengths: queue overflow"
attr unit b
vector 191 VideoStreamingShowcase.router.eth[0].queue flowQueueingTime:vector ETV
attr interpolationmode none
attr recordingmode vector
attr source queueingTime(demuxFlow(packetPulled))
attr title "flow queueing times"
attr unit s
vector 192 VideoStreamingShowcase.router.eth[0].queue flowIncomingDataRate:vector ETV
attr interpolationmode linear
attr recordingmode vector
attr source throughput(flowPacketLength(demuxFlow(packetPushStarted)))
attr title "flow specific incoming data rate"
attr unit bps
vector 193 VideoStreamingShowcase.router.eth[0].queue flowOutgoingDataRate:vector ETV
attr interpolationmode linear
attr recordingmode vector
attr source throughput(flowPacketLength(demuxFlow(packetPulled)))
attr title "flow specific outgoing data rate"
attr unit bps
vector 194 VideoStreamingShowcase.router.eth[0].mac txPk:vector(packetBytes) ETV
attr interpolationmode none
attr recordingmode vector(packetBytes)
attr source packetSentToLower
attr title "packets transmitted, packetBytes"
vector 195 VideoStreamingShowcase.router.eth[0].mac rxPkOk:vector(packetBytes) ETV
attr interpolationmode none
attr recordingmode vector(packetBytes)
attr source rxPkOk
attr title "packets received OK, packetBytes"
vector 196 VideoStreamingShowcase.router.eth[0].mac passedUpPk:vector(packetBytes) ETV
attr interpolationmode none
attr recordingmode vector(packetBytes)
attr source packetSentToUpper
attr title "packets passed to higher layer, packetBytes"
vector 197 VideoStreamingShowcase.router.eth[0].mac txPausePkUnits:vector ETV
attr interpolationmode none
attr recordingmode vector
attr title "pause units sent"
vector 198 VideoStreamingShowcase.router.eth[0].mac rxPausePkUnits:vector ETV
attr interpolationmode none
attr recordingmode vector
attr title "pause units received"
vector 199 VideoStreamingShowcase.router.eth[0].mac packetReceivedFromUpper:vector(packetBytes) ETV
attr interpolationmode none
attr recordingmode vector(packetBytes)
attr source packetReceivedFromUpper
attr title "packet bytes from higher layer, packetBytes"
vector 200 VideoStreamingShowcase.router.eth[0].mac packetDropIncorrectlyReceived:vector(packetBytes) ETV
attr interpolationmode none
attr recordingmode vector(packetBytes)
attr source packetDropReasonIsIncorrectlyReceived(packetDropped)
attr title "packet drop: incorrectly received, packetBytes"
vector 201 VideoStreamingShowcase.router.eth[0].mac packetDropInterfaceDown:vector(packetBytes) ETV
attr interpolationmode none
attr recordingmode vector(packetBytes)
attr source packetDropReasonIsInterfaceDown(packetDropped)
attr title "packet drop: interface down, packetBytes"
vector 202 VideoStreamingShowcase.router.eth[0].mac packetDropNotAddressedToUs:vector(packetBytes) ETV
attr interpolationmode none
attr recordingmode vector(packetBytes)
attr source packetDropReasonIsNotAddressedToUs(packetDropped)
attr title "packet drop: not addressed to us, packetBytes"
vector 203 VideoStreamingShowcase.router.eth[0] packetDropInterfaceDown:vector(packetBytes) ETV
attr interpolationmode none
attr recordingmode vector(packetBytes)
attr source packetDropReasonIsInterfaceDown(packetDropped)
attr title "packet drops: interface down, packetBytes"
vector 204 VideoStreamingShowcase.router.eth[0] packetDropNoCarrier:vector(packetBytes) ETV
attr interpolationmode none
attr recordingmode vector(packetBytes)
attr source packetDropReasonIsNoCarrier(packetDropped)
attr title "packet drops: no carrier, packetBytes"
vector 205 VideoStreamingShowcase.router.eth[1].queue queueLength:vector ETV
attr autoWarmupFilter false
attr interpolationmode sample-hold
attr recordingmode vector
attr source "warmup(atomic(constant0(packetPushEnded) + count(packetPushStarted) - count(packetPulled) - count(packetRemoved) - count(packetDropped)))"
attr title "queue length"
attr unit pk
vector 206 VideoStreamingShowcase.router.eth[1].queue queueBitLength:vector ETV
attr autoWarmupFilter false
attr interpolationmode sample-hold
attr recordingmode vector
attr source "warmup(atomic(constant0(packetPushEnded) + sum(packetLength(packetPushStarted)) - sum(packetLength(packetPulled)) - sum(packetLength(packetRemoved)) - sum(packetLength(packetDropped))))"
attr title "queue bit length"
attr unit b
vector 207 VideoStreamingShowcase.router.eth[1].queue queueingTime:vector ETV
attr interpolationmode none
attr recordingmode vector
attr source queueingTime(packetPulled)
attr title "queueing times"
attr unit s
vector 208 VideoStreamingShowcase.router.eth[1].queue incomingPacketLengths:vector ETV
attr interpolationmode none
attr recordingmode vector
attr source packetLength(packetPushStarted)
attr title "incoming packet lengths"
attr unit b
vector 209 VideoStreamingShowcase.router.eth[1].queue incomingDataRate:vector ETV
attr interpolationmode linear
attr recordingmode vector
attr source throughput(packetPushStarted)
attr title "incoming datarate"
attr unit bps
vector 210 VideoStreamingShowcase.router.eth[1].queue outgoingPacketLengths:vector ETV
attr interpolationmode none
attr recordingmode vector
attr source packetLength(packetPulled)
attr title "outgoing packet lengths"
attr unit b
vector 211 VideoStreamingShowcase.router.eth[1].queue outgoingDataRate:vector ETV
attr interpolationmode linear
attr recordingmode vector
attr source throughput(packetPulled)
attr title "outgoing datarate"
attr unit bps
vector 212 VideoStreamingShowcase.router.eth[1].queue droppedPacketLengthsQueueOverflow:vector ETV
attr interpolationmode none
attr recordingmode vector
attr source packetLength(packetDropReasonIsQueueOverflow(packetDropped))
attr title "dropped packet lengths: queue overflow"
attr unit b
vector 213 VideoStreamingShowcase.router.eth[1].queue flowQueueingTime:vector ETV
attr interpolationmode none
attr recordingmode vector
attr source queueingTime(demuxFlow(packetPulled))
attr title "flow queueing times"
attr unit s
vector 214 VideoStreamingShowcase.router.eth[1].queue flowIncomingDataRate:vector ETV
attr interpolationmode linear
attr recordingmode vector
attr source throughput(flowPacketLength(demuxFlow(packetPushStarted)))
attr title "flow specific incoming data rate"
attr unit bps
vector 215 VideoStreamingShowcase.router.eth[1].queue flowOutgoingDataRate:vector ETV
attr interpolationmode linear
attr recordingmode vector
attr source throughput(flowPacketLength(demuxFlow(packetPulled)))
attr title "flow specific outgoing data rate"
attr unit bps
vector 216 VideoStreamingShowcase.router.eth[1].mac txPk:vector(packetBytes) ETV
attr interpolationmode none
attr recordingmode vector(packetBytes)
attr source packetSentToLower
attr title "packets transmitted, packetBytes"
vector 217 VideoStreamingShowcase.router.eth[1].mac rxPkOk:vector(packetBytes) ETV
attr interpolationmode none
attr recordingmode vector(packetBytes)
attr source rxPkOk
attr title "packets received OK, packetBytes"
vector 218 VideoStreamingShowcase.router.eth[1].mac passedUpPk:vector(packetBytes) ETV
attr interpolationmode none
attr recordingmode vector(packetBytes)
attr source packetSentToUpper
attr title "packets passed to higher layer, packetBytes"
vector 219 VideoStreamingShowcase.router.eth[1].mac txPausePkUnits:vector ETV
attr interpolationmode none
attr recordingmode vector
attr title "pause units sent"
vector 220 VideoStreamingShowcase.router.eth[1].mac rxPausePkUnits:vector ETV
attr interpolationmode none
attr recordingmode vector
attr title "pause units received"
vector 221 VideoStreamingShowcase.router.eth[1].mac packetReceivedFromUpper:vector(packetBytes) ETV
attr interpolationmode none
attr recordingmode vector(packetBytes)
attr source packetReceivedFromUpper
attr title "packet bytes from higher layer, packetBytes"
vector 222 VideoStreamingShowcase.router.eth[1].mac packetDropIncorrectlyReceived:vector(packetBytes) ETV
attr interpolationmode none
attr recordingmode vector(packetBytes)
attr source packetDropReasonIsIncorrectlyReceived(packetDropped)
attr title "packet drop: incorrectly received, packetBytes"
vector 223 VideoStreamingShowcase.router.eth[1].mac packetDropInterfaceDown:vector(packetBytes) ETV
attr interpolationmode none
attr recordingmode vector(packetBytes)
attr source packetDropReasonIsInterfaceDown(packetDropped)
attr title "packet drop: interface down, packetBytes"
vector 224 VideoStreamingShowcase.router.eth[1].mac packetDropNotAddressedToUs:vector(packetBytes) ETV
attr interpolationmode none
attr recordingmode vector(packetBytes)
attr source packetDropReasonIsNotAddressedToUs(packetDropped)
attr title "packet drop: not addressed to us, packetBytes"
vector 225 VideoStreamingShowcase.router.eth[1] packetDropInterfaceDown:vector(packetBytes) ETV
attr interpolationmode none
attr recordingmode vector(packetBytes)
attr source packetDropReasonIsInterfaceDown(packetDropped)
attr title "packet drops: interface down, packetBytes"
vector 226 VideoStreamingShowcase.router.eth[1] packetDropNoCarrier:vector(packetBytes) ETV
attr interpolationmode none
attr recordingmode vector(packetBytes)
attr source packetDropReasonIsNoCarrier(packetDropped)
attr title "packet drops: no carrier, packetBytes"
vector 227 VideoStreamingShowcase.router.ipv4.ip packetDropAddressResolutionFailed:vector(packetBytes) ETV
attr interpolationmode none
attr recordingmode vector(packetBytes)
attr source packetDropReasonIsAddressResolutionFailed(packetDropped)
attr title "packet drop: address resolution failed, packetBytes"
vector 228 VideoStreamingShowcase.router.ipv4.ip packetDropHopLimitReached:vector(packetBytes) ETV
attr interpolationmode none
attr recordingmode vector(packetBytes)
attr source packetDropReasonIsHopLimitReached(packetDropped)
attr title "packet drop: hop limit reached, packetBytes"
vector 229 VideoStreamingShowcase.router.ipv4.ip packetDropForwardingDisabled:vector(packetBytes) ETV
attr interpolationmode none
attr recordingmode vector(packetBytes)
attr source packetDropReasonIsForwardingDisabled(packetDropped)
attr title "packet drop: forwarding disabled, packetBytes"
vector 230 VideoStreamingShowcase.router.ipv4.ip packetDropNoInterfaceFound:vector(packetBytes) ETV
attr interpolationmode none
attr recordingmode vector(packetBytes)
attr source packetDropReasonIsNoInterfaceFound(packetDropped)
attr title "packet drop: no interface found, packetBytes"
vector 231 VideoStreamingShowcase.router.ipv4.ip packetDropNoRouteFound:vector(packetBytes) ETV
attr interpolationmode none
attr recordingmode vector(packetBytes)
attr source packetDropReasonIsNoRouteFound(packetDropped)
attr title "packet drop: no route found, packetBytes"
vector 232 VideoStreamingShowcase.router.ipv4.ip packetDropUndefined:vector(packetBytes) ETV
attr interpolationmode none
attr recordingmode vector(packetBytes)
attr source packetDropReasonIsUndefined(packetDropped)
attr title "packet drop: undefined, packetBytes"
vector 233 VideoStreamingShowcase.router.ipv4.arp arpRequestSent:vector(packetBytes) ETV
attr recordingmode vector(packetBytes)
attr source arpRequestSent
attr title "ARP request sent, packetBytes"
vector 234 VideoStreamingShowcase.router.ipv4.arp arpReplySent:vector(packetBytes) ETV
attr recordingmode vector(packetBytes)
attr source arpReplySent
attr title "ARP replies sent, packetBytes"
vector 235 VideoStreamingShowcase.host1.ethernet encapPk:vector(packetBytes) ETV
attr interpolationmode none
attr recordingmode vector(packetBytes)
attr source encapPk
attr title "packets encapsulated, packetBytes"
vector 236 VideoStreamingShowcase.host1.ethernet decapPk:vector(packetBytes) ETV
attr interpolationmode none
attr recordingmode vector(packetBytes)
attr source decapPk
attr title "packets decapsulated, packetBytes"
vector 237 VideoStreamingShowcase.host1.ethernet pauseSent:vector ETV
attr recordingmode vector
attr title "pause sent"
vector 238 VideoStreamingShowcase.host1.lo[0].lo rcvdPkFromHl:vector(packetBytes) ETV
attr interpolationmode none
attr recordingmode vector(packetBytes)
attr source packetReceivedFromUpper
attr title "packets received from higher layer, packetBytes"
vector 239 VideoStreamingShowcase.host1.lo[0].lo passedUpPk:vector(packetBytes) ETV
attr interpolationmode none
attr recordingmode vector(packetBytes)
attr source packetSentToUpper
attr title "packets passed to higher layer, packetBytes"
vector 240 VideoStreamingShowcase.host1.lo[0] packetDropInterfaceDown:vector(packetBytes) ETV
attr interpolationmode none
attr recordingmode vector(packetBytes)
attr source packetDropReasonIsInterfaceDown(packetDropped)
attr title "packet drops: interface down, packetBytes"
vector 241 VideoStreamingShowcase.host1.lo[0] packetDropNoCarrier:vector(packetBytes) ETV
attr interpolationmode none
attr recordingmode vector(packetBytes)
attr source packetDropReasonIsNoCarrier(packetDropped)
attr title "packet drops: no carrier, packetBytes"
vector 242 VideoStreamingShowcase.host1.eth[0].tap packetSentFromLower:vector(packetBytes) ETV
attr interpolationmode none
attr recordingmode vector(packetBytes)
attr source packetSentToLower
attr title "packets sent to higher layer, packetBytes"
vector 243 VideoStreamingShowcase.host1.eth[0].tap packetReceivedFromLower:vector(packetBytes) ETV
attr interpolationmode none
attr recordingmode vector(packetBytes)
attr source packetReceivedFromLower
attr title "packets received from higher layer, packetBytes"
vector 244 VideoStreamingShowcase.host1.eth[0].tap packetSent:vector(packetBytes) ETV
attr interpolationmode none
attr recordingmode vector(packetBytes)
attr source packetSent
attr title "packets sent, packetBytes"
vector 245 VideoStreamingShowcase.host1.eth[0].tap packetReceived:vector(packetBytes) ETV
attr interpolationmode none
attr recordingmode vector(packetBytes)
attr source packetReceived
attr title "packets received, packetBytes"
vector 246 VideoStreamingShowcase.host1.eth[0].queue queueLength:vector ETV
attr autoWarmupFilter false
attr interpolationmode sample-hold
attr recordingmode vector
attr source "warmup(atomic(constant0(packetPushEnded) + count(packetPushStarted) - count(packetPulled) - count(packetRemoved) - count(packetDropped)))"
attr title "queue length"
attr unit pk
vector 247 VideoStreamingShowcase.host1.eth[0].queue queueBitLength:vector ETV
attr autoWarmupFilter false
attr interpolationmode sample-hold
attr recordingmode vector
attr source "warmup(atomic(constant0(packetPushEnded) + sum(packetLength(packetPushStarted)) - sum(packetLength(packetPulled)) - sum(packetLength(packetRemoved)) - sum(packetLength(packetDropped))))"
attr title "queue bit length"
attr unit b
vector 248 VideoStreamingShowcase.host1.eth[0].queue queueingTime:vector ETV
attr interpolationmode none
attr recordingmode vector
attr source queueingTime(packetPulled)
attr title "queueing times"
attr unit s
vector 249 VideoStreamingShowcase.host1.eth[0].queue incomingPacketLengths:vector ETV
attr interpolationmode none
attr recordingmode vector
attr source packetLength(packetPushStarted)
attr title "incoming packet lengths"
attr unit b
vector 250 VideoStreamingShowcase.host1.eth[0].queue incomingDataRate:vector ETV
attr interpolationmode linear
attr recordingmode vector
attr source throughput(packetPushStarted)
attr title "incoming datarate"
attr unit bps
vector 251 VideoStreamingShowcase.host1.eth[0].queue outgoingPacketLengths:vector ETV
attr interpolationmode none
attr recordingmode vector
attr source packetLength(packetPulled)
attr title "outgoing packet lengths"
attr unit b
vector 252 VideoStreamingShowcase.host1.eth[0].queue outgoingDataRate:vector ETV
attr interpolationmode linear
attr recordingmode vector
attr source throughput(packetPulled)
attr title "outgoing datarate"
attr unit bps
vector 253 VideoStreamingShowcase.host1.eth[0].queue droppedPacketLengthsQueueOverflow:vector ETV
attr interpolationmode none
attr recordingmode vector
attr source packetLength(packetDropReasonIsQueueOverflow(packetDropped))
attr title "dropped packet lengths: queue overflow"
attr unit b
vector 254 VideoStreamingShowcase.host1.eth[0].queue flowQueueingTime:vector ETV
attr interpolationmode none
attr recordingmode vector
attr source queueingTime(demuxFlow(packetPulled))
attr title "flow queueing times"
attr unit s
vector 255 VideoStreamingShowcase.host1.eth[0].queue flowIncomingDataRate:vector ETV
attr interpolationmode linear
attr recordingmode vector
attr source throughput(flowPacketLength(demuxFlow(packetPushStarted)))
attr title "flow specific incoming data rate"
attr unit bps
vector 256 VideoStreamingShowcase.host1.eth[0].queue flowOutgoingDataRate:vector ETV
attr interpolationmode linear
attr recordingmode vector
attr source throughput(flowPacketLength(demuxFlow(packetPulled)))
attr title "flow specific outgoing data rate"
attr unit bps
vector 257 VideoStreamingShowcase.host1.eth[0].mac txPk:vector(packetBytes) ETV
attr interpolationmode none
attr recordingmode vector(packetBytes)
attr source packetSentToLower
attr title "packets transmitted, packetBytes"
vector 258 VideoStreamingShowcase.host1.eth[0].mac rxPkOk:vector(packetBytes) ETV
attr interpolationmode none
attr recordingmode vector(packetBytes)
attr source rxPkOk
attr title "packets received OK, packetBytes"
vector 259 VideoStreamingShowcase.host1.eth[0].mac passedUpPk:vector(packetBytes) ETV
attr interpolationmode none
attr recordingmode vector(packetBytes)
attr source packetSentToUpper
attr title "packets passed to higher layer, packetBytes"
vector 260 VideoStreamingShowcase.host1.eth[0].mac txPausePkUnits:vector ETV
attr interpolationmode none
attr recordingmode vector
attr title "pause units sent"
vector 261 VideoStreamingShowcase.host1.eth[0].mac rxPausePkUnits:vector ETV
attr interpolationmode none
attr recordingmode vector
attr title "pause units received"
vector 262 VideoStreamingShowcase.host1.eth[0].mac packetReceivedFromUpper:vector(packetBytes) ETV
attr interpolationmode none
attr recordingmode vector(packetBytes)
attr source packetReceivedFromUpper
attr title "packet bytes from higher layer, packetBytes"
vector 263 VideoStreamingShowcase.host1.eth[0].mac packetDropIncorrectlyReceived:vector(packetBytes) ETV
attr interpolationmode none
attr recordingmode vector(packetBytes)
attr source packetDropReasonIsIncorrectlyReceived(packetDropped)
attr title "packet drop: incorrectly received, packetBytes"
vector 264 VideoStreamingShowcase.host1.eth[0].mac packetDropInterfaceDown:vector(packetBytes) ETV
attr interpolationmode none
attr recordingmode vector(packetBytes)
attr source packetDropReasonIsInterfaceDown(packetDropped)
attr title "packet drop: interface down, packetBytes"
vector 265 VideoStreamingShowcase.host1.eth[0].mac packetDropNotAddressedToUs:vector(packetBytes) ETV
attr interpolationmode none
attr recordingmode vector(packetBytes)
attr source packetDropReasonIsNotAddressedToUs(packetDropped)
attr title "packet drop: not addressed to us, packetBytes"
vector 266 VideoStreamingShowcase.host1.eth[0] packetDropInterfaceDown:vector(packetBytes) ETV
attr interpolationmode none
attr recordingmode vector(packetBytes)
attr source packetDropReasonIsInterfaceDown(packetDropped)
attr title "packet drops: interface down, packetBytes"
vector 267 VideoStreamingShowcase.host1.eth[0] packetDropNoCarrier:vector(packetBytes) ETV
attr interpolationmode none
attr recordingmode vector(packetBytes)
attr source packetDropReasonIsNoCarrier(packetDropped)
attr title "packet drops: no carrier, packetBytes"
vector 268 VideoStreamingShowcase.host1.ipv4.ip packetDropAddressResolutionFailed:vector(packetBytes) ETV
attr interpolationmode none
attr recordingmode vector(packetBytes)
attr source packetDropReasonIsAddressResolutionFailed(packetDropped)
attr title "packet drop: address resolution failed, packetBytes"
vector 269 VideoStreamingShowcase.host1.ipv4.ip packetDropHopLimitReached:vector(packetBytes) ETV
attr interpolationmode none
attr recordingmode vector(packetBytes)
attr source packetDropReasonIsHopLimitReached(packetDropped)
attr title "packet drop: hop limit reached, packetBytes"
vector 270 VideoStreamingShowcase.host1.ipv4.ip packetDropForwardingDisabled:vector(packetBytes) ETV
attr interpolationmode none
attr recordingmode vector(packetBytes)
attr source packetDropReasonIsForwardingDisabled(packetDropped)
attr title "packet drop: forwarding disabled, packetBytes"
vector 271 VideoStreamingShowcase.host1.ipv4.ip packetDropNoInterfaceFound:vector(packetBytes) ETV
attr interpolationmode none
attr recordingmode vector(packetBytes)
attr source packetDropReasonIsNoInterfaceFound(packetDropped)
attr title "packet drop: no interface found, packetBytes"
vector 272 VideoStreamingShowcase.host1.ipv4.ip packetDropNoRouteFound:vector(packetBytes) ETV
attr interpolationmode none
attr recordingmode vector(packetBytes)
attr source packetDropReasonIsNoRouteFound(packetDropped)
attr title "packet drop: no route found, packetBytes"
vector 273 VideoStreamingShowcase.host1.ipv4.ip packetDropUndefined:vector(packetBytes) ETV
attr interpolationmode none
attr recordingmode vector(packetBytes)
attr source packetDropReasonIsUndefined(packetDropped)
attr title "packet drop: undefined, packetBytes"
vector 274 VideoStreamingShowcase.host1.ipv4.arp arpRequestSent:vector(packetBytes) ETV
attr recordingmode vector(packetBytes)
attr source arpRequestSent
attr title "ARP request sent, packetBytes"
vector 275 VideoStreamingShowcase.host1.ipv4.arp arpReplySent:vector(packetBytes) ETV
attr recordingmode vector(packetBytes)
attr source arpReplySent
attr title "ARP replies sent, packetBytes"
vector 276 VideoStreamingShowcase.host1.udp packetSent:vector(packetBytes) ETV
attr interpolationmode none
attr recordingmode vector(packetBytes)
attr source packetSent
attr title "packets sent, packetBytes"
vector 277 VideoStreamingShowcase.host1.udp packetReceived:vector(packetBytes) ETV
attr interpolationmode none
attr recordingmode vector(packetBytes)
attr source packetReceived
attr title "packets received, packetBytes"
vector 278 VideoStreamingShowcase.host1.udp passedUpPk:vector(count) ETV
attr interpolationmode none
attr recordingmode vector(count)
attr source packetSentToUpper
attr title "packets passed up, count"
vector 279 VideoStreamingShowcase.host1.udp droppedPkWrongPort:vector(count) ETV
attr interpolationmode none
attr recordingmode vector(count)
attr source packetDropReasonIsNoPortFound(packetDropped)
attr title "packets dropped (wrong port), count"
vector 280 VideoStreamingShowcase.host1.udp droppedPkBadChecksum:vector(count) ETV
attr interpolationmode none
attr recordingmode vector(count)
attr source packetDropReasonIsIncorrectlyReceived(packetDropped)
attr title "packets dropped (checksum error), count"
vector 281 VideoStreamingShowcase.host2.ethernet encapPk:vector(packetBytes) ETV
attr interpolationmode none
attr recordingmode vector(packetBytes)
attr source encapPk
attr title "packets encapsulated, packetBytes"
vector 282 VideoStreamingShowcase.host2.ethernet decapPk:vector(packetBytes) ETV
attr interpolationmode none
attr recordingmode vector(packetBytes)
attr source decapPk
attr title "packets decapsulated, packetBytes"
vector 283 VideoStreamingShowcase.host2.ethernet pauseSent:vector ETV
attr recordingmode vector
attr title "pause sent"
vector 284 VideoStreamingShowcase.host2.lo[0].lo rcvdPkFromHl:vector(packetBytes) ETV
attr interpolationmode none
attr recordingmode vector(packetBytes)
attr source packetReceivedFromUpper
attr title "packets received from higher layer, packetBytes"
vector 285 VideoStreamingShowcase.host2.lo[0].lo passedUpPk:vector(packetBytes) ETV
attr interpolationmode none
attr recordingmode vector(packetBytes)
attr source packetSentToUpper
attr title "packets passed to higher layer, packetBytes"
vector 286 VideoStreamingShowcase.host2.lo[0] packetDropInterfaceDown:vector(packetBytes) ETV
attr interpolationmode none
attr recordingmode vector(packetBytes)
attr source packetDropReasonIsInterfaceDown(packetDropped)
attr title "packet drops: interface down, packetBytes"
vector 287 VideoStreamingShowcase.host2.lo[0] packetDropNoCarrier:vector(packetBytes) ETV
attr interpolationmode none
attr recordingmode vector(packetBytes)
attr source packetDropReasonIsNoCarrier(packetDropped)
attr title "packet drops: no carrier, packetBytes"
vector 288 VideoStreamingShowcase.host2.eth[0].tap packetSentFromLower:vector(packetBytes) ETV
attr interpolationmode none
attr recordingmode vector(packetBytes)
attr source packetSentToLower
attr title "packets sent to higher layer, packetBytes"
vector 289 VideoStreamingShowcase.host2.eth[0].tap packetReceivedFromLower:vector(packetBytes) ETV
attr interpolationmode none
attr recordingmode vector(packetBytes)
attr source packetReceivedFromLower
attr title "packets received from higher layer, packetBytes"
vector 290 VideoStreamingShowcase.host2.eth[0].tap packetSent:vector(packetBytes) ETV
attr interpolationmode none
attr recordingmode vector(packetBytes)
attr source packetSent
attr title "packets sent, packetBytes"
vector 291 VideoStreamingShowcase.host2.eth[0].tap packetReceived:vector(packetBytes) ETV
attr interpolationmode none
attr recordingmode vector(packetBytes)
attr source packetReceived
attr title "packets received, packetBytes"
vector 292 VideoStreamingShowcase.host2.eth[0].queue queueLength:vector ETV
attr autoWarmupFilter false
attr interpolationmode sample-hold
attr recordingmode vector
attr source "warmup(atomic(constant0(packetPushEnded) + count(packetPushStarted) - count(packetPulled) - count(packetRemoved) - count(packetDropped)))"
attr title "queue length"
attr unit pk
vector 293 VideoStreamingShowcase.host2.eth[0].queue queueBitLength:vector ETV
attr autoWarmupFilter false
attr interpolationmode sample-hold
attr recordingmode vector
attr source "warmup(atomic(constant0(packetPushEnded) + sum(packetLength(packetPushStarted)) - sum(packetLength(packetPulled)) - sum(packetLength(packetRemoved)) - sum(packetLength(packetDropped))))"
attr title "queue bit length"
attr unit b
vector 294 VideoStreamingShowcase.host2.eth[0].queue queueingTime:vector ETV
attr interpolationmode none
attr recordingmode vector
attr source queueingTime(packetPulled)
attr title "queueing times"
attr unit s
vector 295 VideoStreamingShowcase.host2.eth[0].queue incomingPacketLengths:vector ETV
attr interpolationmode none
attr recordingmode vector
attr source packetLength(packetPushStarted)
attr title "incoming packet lengths"
attr unit b
vector 296 VideoStreamingShowcase.host2.eth[0].queue incomingDataRate:vector ETV
attr interpolationmode linear
attr recordingmode vector
attr source throughput(packetPushStarted)
attr title "incoming datarate"
attr unit bps
vector 297 VideoStreamingShowcase.host2.eth[0].queue outgoingPacketLengths:vector ETV
attr interpolationmode none
attr recordingmode vector
attr source packetLength(packetPulled)
attr title "outgoing packet lengths"
attr unit b
vector 298 VideoStreamingShowcase.host2.eth[0].queue outgoingDataRate:vector ETV
attr interpolationmode linear
attr recordingmode vector
attr source throughput(packetPulled)
attr title "outgoing datarate"
attr unit bps
vector 299 VideoStreamingShowcase.host2.eth[0].queue droppedPacketLengthsQueueOverflow:vector ETV
attr interpolationmode none
attr recordingmode vector
attr source packetLength(packetDropReasonIsQueueOverflow(packetDropped))
attr title "dropped packet lengths: queue overflow"
attr unit b
vector 300 VideoStreamingShowcase.host2.eth[0].queue flowQueueingTime:vector ETV
attr interpolationmode none
attr recordingmode vector
attr source queueingTime(demuxFlow(packetPulled))
attr title "flow queueing times"
attr unit s
[...]
attr recordingmode vector(packetBytes)
attr source packetDropReasonIsUndefined(packetDropped)
attr title "packet drop: undefined, packetBytes"
vector 320 VideoStreamingShowcase.host2.ipv4.arp arpRequestSent:vector(packetBytes) ETV
attr recordingmode vector(packetBytes)
attr source arpRequestSent
attr title "ARP request sent, packetBytes"
vector 321 VideoStreamingShowcase.host2.ipv4.arp arpReplySent:vector(packetBytes) ETV
attr recordingmode vector(packetBytes)
attr source arpReplySent
attr title "ARP replies sent, packetBytes"
vector 322 VideoStreamingShowcase.host2.udp packetSent:vector(packetBytes) ETV
attr interpolationmode none
attr recordingmode vector(packetBytes)
attr source packetSent
attr title "packets sent, packetBytes"
vector 323 VideoStreamingShowcase.host2.udp packetReceived:vector(packetBytes) ETV
attr interpolationmode none
attr recordingmode vector(packetBytes)
attr source packetReceived
attr title "packets received, packetBytes"
vector 324 VideoStreamingShowcase.host2.udp passedUpPk:vector(count) ETV
attr interpolationmode none
attr recordingmode vector(count)
attr source packetSentToUpper
attr title "packets passed up, count"
vector 325 VideoStreamingShowcase.host2.udp droppedPkWrongPort:vector(count) ETV
attr interpolationmode none
attr recordingmode vector(count)
attr source packetDropReasonIsNoPortFound(packetDropped)
attr title "packets dropped (wrong port), count"
vector 326 VideoStreamingShowcase.host2.udp droppedPkBadChecksum:vector(count) ETV
attr interpolationmode none
attr recordingmode vector(count)
attr source packetDropReasonIsIncorrectlyReceived(packetDropped)
attr title "packets dropped (checksum error), count"
1	86364 243356 11 241165 0.019722069 610.523052134 9227 46 1500 8767543 12245086001
2	329720 243354 7 241163 0.019722069 610.523052134 9227 46 1500 8767543 12245086001
44	573074 62817 0 241125 0 610.505349835 2538 0 1 1 1
45	635891 62820 0 241125 0 610.505349835 2538 0 1264 1264 1597696
46	698711 62756 95 241125 11.401451314 610.505349835 2532 0 8.0884e-05 8.0884e-05 6.542221456e-09
47	761467 67830 95 241125 11.401451314 610.505349835 2532 512 12144 1593624 1557238080
48	829297 103953 95 241073 0.1 610.5 6105 0 173920 15923760 1004479929600
49	933250 67829 95 241125 11.401451314 610.505349835 2532 512 12144 1593624 1557238080
50	1001079 103953 95 241073 0.1 610.5 6105 0 173920 15923760 1004479929600
55	1105032 65290 97 241127 11.401457074 610.505355755 2532 64 1518 199203 24331845
56	1170322 187320 5 241162 0.019722069 610.523052134 6695 64 1518 8734426 12539375252
57	1357642 187320 5 241162 0.019722069 610.523052134 6695 64 1518 8734426 12539375252
60	1544962 65301 95 241125 11.401451314 610.505349835 2532 64 1518 199203 24331845
66	1610263 168557 0 241166 0 610.523052134 6700 0 0 0 0
67	1778820 168557 0 241166 0 610.523052134 6700 0 0 0 0
68	1947377 168512 13 241166 0.019722069 610.523052134 6695 0 0 0 0
69	2115889 193933 13 241166 0.019722069 610.523052134 6695 512 12144 69875408 802520016128
70	2309822 104680 43 241087 0.1 610.5 6105 0 7066720 698528320 1.897526805248e+15
71	2414502 193933 13 241166 0.019722069 610.523052134 6695 512 12144 69875408 802520016128
72	2608435 104680 43 241087 0.1 610.5 6105 0 7066720 698528320 1.897526805248e+15
77	2713115 187301 17 241168 0.019731829 610.523163014 6695 64 1518 8734426 12539375252
78	2900416 65302 91 241121 11.401451314 610.505349835 2532 64 1518 199203 24331845
79	2965718 65302 91 241121 11.401451314 610.505349835 2532 64 1518 199203 24331845
82	3031020 187323 13 241166 0.019722069 610.523052134 6695 64 1518 8734426 12539375252
89	3218343 256337 12 241150 0.019722069 610.506995936 9373 46 1500 8776217 12245996317
90	3474680 256336 8 241148 0.019722069 610.506995936 9373 46 1500 8776217 12245996317
132	3731016 69100 0 241111 0 610.502291928 2684 0 0 0 0
133	3800116 69100 0 241111 0 610.502291928 2684 0 0 0 0
134	3869216 69050 14 241111 0.019722069 610.502291928 2679 0 0 0 0
135	3938266 74428 14 241111 0.019722069 610.502291928 2679 512 12144 1695864 1761178432
136	4012694 110083 31 241111 0.1 610.5 6105 0 296240 16951440 1159018886400
137	4122777 74428 14 241111 0.019722069 610.502291928 2679 512 12144 1695864 1761178432
138	4197205 110083 31 241111 0.1 610.5 6105 0 296240 16951440 1159018886400
143	4307288 71767 18 241113 0.019731829 610.502299768 2679 64 1518 211983 27518413
144	4379055 193996 65 241147 11.381219716 610.506995936 6694 64 1518 8732948 12537458568
145	4573051 193996 65 241147 11.381219716 610.506995936 6694 64 1518 8732948 12537458568
148	4767047 71755 14 241111 0.019722069 610.502291928 2679 64 1518 211983 27518413
154	4838802 175240 0 241151 0 610.506995936 6699 0 0 0 0
155	5014042 175240 0 241151 0 610.506995936 6699 0 0 0 0
156	5189282 175190 69 241151 11.381219716 610.506995936 6694 0 0 0 0
157	5364472 200607 69 241151 11.381219716 610.506995936 6694 512 12144 69863584 802397348352
158	5565079 110677 69 241101 0.1 610.5 6105 0 7066720 698520320 1.8967866946048e+15
159	5675756 200607 69 241151 11.381219716 610.506995936 6694 512 12144 69863584 802397348352
160	5876363 110677 69 241101 0.1 610.5 6105 0 7066720 698520320 1.8967866946048e+15
165	5987040 193988 71 241153 11.381225476 610.507106816 6694 64 1518 8732948 12537458568
166	6181028 71754 6 241107 0.019722069 610.502291928 2679 64 1518 211983 27518413
167	6252782 71754 6 241107 0.019722069 610.502291928 2679 64 1518 211983 27518413
170	6324536 193996 69 241151 11.381219716 610.506995936 6694 64 1518 8732948 12537458568
176	6518532 261823 62 241172 11.381213906 610.523163064 9227 28 1500 8767107 12245046793
177	6780355 261797 60 241170 11.381213906 610.523163064 9226 46 1500 8767397 12245069685
183	7042152 65385 0 241119 0 610.505343865 2539 0 1 2 2
184	7107537 65389 0 241119 0 610.505343865 2539 0 656 1280 819712
185	7172926 65295 89 241119 11.401445504 610.505343865 2532 0 7.2e-06 1.44e-05 1.0368e-10
186	7238221 70365 89 241119 11.401445504 610.505343865 2532 368 12144 1592472 1556224320
187	7308586 110057 89 241067 0.1 610.5 6105 0 173920 15912240 1003822598400
188	7418643 70365 89 241119 11.401445504 610.505343865 2532 368 12144 1592472 1556224320
189	7489008 110057 89 241067 0.1 610.5 6105 0 173920 15912240 1003822598400
194	7599065 67836 90 241120 11.401451264 610.505349785 2532 64 1518 199203 24331845
195	7666901 194016 19 241169 0.019731879 610.523163064 6695 64 1518 8734426 12539375252
196	7860917 194016 19 241169 0.019731879 610.523163064 6695 64 1518 8734426 12539375252
199	8054933 67837 89 241119 11.401445504 610.505343865 2532 46 1518 199059 24316005
205	8122770 175265 0 241144 0 610.506885006 6700 0 1 1 1
206	8298035 175267 0 241144 0 610.506885006 6700 0 624 624 389376
207	8473302 175196 63 241144 11.381213906 610.506885006 6694 0 7.84e-06 7.84e-06 6.14656e-11
208	8648498 200606 63 241144 11.381213906 610.506885006 6694 368 12144 69862048 802395987456
209	8849104 110677 63 241094 0.1 610.5 6105 0 7066720 698504960 1.896756951808e+15
210	8959781 200606 63 241144 11.381213906 610.506885006 6694 368 12144 69862048 802395987456
211	9160387 110677 63 241094 0.1 610.5 6105 0 7066720 698504960 1.896756951808e+15
216	9271064 193983 64 241146 11.381219666 610.506995886 6694 64 1518 8732948 12537458568
217	9465047 67938 23 241115 0.029731829 610.505343865 2536 64 1518 199569 24367409
218	9532985 67938 23 241115 0.029731829 610.505343865 2536 64 1518 199569 24367409
221	9600923 193995 63 241144 11.381213906 610.506885006 6694 46 1518 8732756 12537437304
222	9794918 3829 839 241157 11.692791216 610.512299768 143 66 1518 12414 3151004
233	9798747 213 87 135714 11.401445504 576.63697125 8 28 28 224 6272
234	9798960 267 61 135911 11.381213906 582.744425961 10 28 28 280 7840
242	9799227 194000 0 241159 0.019712259 610.522941204 6695 46 1518 8734270 12539357948
243	9993227 67828 99 241129 11.401457124 610.505355805 2532 64 1518 199203 24331845
244	10061055 67828 99 241129 11.401457124 610.505355805 2532 60 1514 189075 22778733
245	10128883 194000 0 241159 0.019712259 610.522941204 6695 46 1518 8734270 12539357948
246	10322883 175239 0 241160 0 610.522941204 6700 0 0 0 0
247	10498122 175239 0 241160 0 610.522941204 6700 0 0 0 0
248	10673361 175189 1 241160 0.019712259 610.522941204 6695 0 0 0 0
249	10848550 200610 1 241160 0.019712259 610.522941204 6695 368 12144 69874160 802518908672
250	11049160 110783 37 241081 0.1 610.5 6105 0 7066720 698515840 1.8970513296128e+15
251	11159943 200610 1 241160 0.019712259 610.522941204 6695 368 12144 69874160 802518908672
252	11360553 110783 37 241081 0.1 610.5 6105 0 7066720 698515840 1.8970513296128e+15
257	11471336 194007 3 241161 0.019722019 610.523052084 6695 64 1518 8734426 12539375252
258	11665343 67828 98 241128 11.401457124 610.505355805 2532 64 1518 199203 24331845
259	11733171 67828 98 241128 11.401457124 610.505355805 2532 64 1518 199203 24331845
262	11800999 194000 1 241160 0.019712259 610.522941204 6695 46 1518 8734270 12539357948
278	11994999 10 0 0 0 0 1 0 0 0 0
279	11995009 10 0 0 0 0 1 0 0 0 0
280	11995019 10 0 0 0 0 1 0 0 0 0
288	11995029 71757 0 241104 0.019712259 610.502284038 2679 46 1518 211821 27500593
289	12066786 184211 74 241159 11.391225476 610.517106816 6356 64 1518 8297931 11913269943
290	12250997 184181 74 241159 11.391225476 610.517106816 6356 60 1514 8272507 11846988191
291	12435178 71757 0 241104 0.019712259 610.502284038 2679 46 1518 211821 27500593
292	12506935 69102 0 241105 0 610.502284038 2684 0 0 0 0
293	12576037 69102 0 241105 0 610.502284038 2684 0 0 0 0
294	12645139 69052 2 241105 0.019712259 610.502284038 2679 0 0 0 0
295	12714191 74430 2 241105 0.019712259 610.502284038 2679 368 12144 1694568 1760037952
296	12788621 110082 25 241105 0.1 610.5 6105 0 296240 16938480 1158346118400
297	12898703 74430 2 241105 0.019712259 610.502284038 2679 368 12144 1694568 1760037952
298	12973133 110082 25 241105 0.1 610.5 6105 0 296240 16938480 1158346118400
303	13083215 71757 4 241106 0.019722019 610.502291878 2679 64 1518 211983 27518413
304	13154972 184211 73 241158 11.391225476 610.517106816 6356 64 1518 8297931 11913269943
305	13339183 184211 73 241158 11.391225476 610.517106816 6356 64 1518 8297931 11913269943
308	13523394 71757 2 241105 0.019712259 610.502284038 2679 46 1518 211821 27500593
309	13595151 9782 1944 241042 12.288992621 610.494399519 338 64 1518 435017 624188625
324	13604933 10 0 0 0 0 1 0 0 0 0
325	13604943 10 0 0 0 0 1 0 0 0 0
326	13604953 10 0 0 0 0 1 0 0 0 0
1	13604963 172221 241201 398110 610.754373287 1418.849589067 6038 46 1360 6720650 8013073756
2	13777184 172221 241199 398108 610.754373287 1418.849589067 6038 46 1360 6720650 8013073756
17	13949405 255815 398130 398130 0.1 1419.66262043 14197 0 0 0 0
37	14205220 255815 398130 398130 0.1 1419.66262043 14197 0 0 0 0
44	14461035 5413 241598 398099 610.764285977 1418.848471076 208 0 0 0 0
45	14466448 5413 241598 398099 610.764285977 1418.848471076 208 0 0 0 0
46	14471861 5413 241598 398099 610.764285977 1418.848471076 208 0 0 0 0
47	14477274 5829 241598 398099 610.764285977 1418.848471076 208 512 720 134544 88620928
48	14483103 148469 241598 398130 610.6 1419.66262043 8092 0 96960 1357920 53981888000
49	14631572 5829 241598 398099 610.764285977 1418.848471076 208 512 720 134544 88620928
50	14637401 148469 241598 398130 610.6 1419.66262043 8092 0 96960 1357920 53981888000
55	14785870 5623 241600 398101 610.764293817 1418.848477796 208 64 90 16818 1384702
56	14791493 172653 241198 398107 610.754373287 1418.849589067 5830 64 1378 6812516 8255588766
57	14964146 172653 241198 398107 610.754373287 1418.849589067 5830 64 1378 6812516 8255588766
60	15136799 5621 241598 398099 610.764285977 1418.848471076 208 64 90 16818 1384702
66	15142420 155604 241202 398111 610.754373287 1418.849589067 5830 0 0 0 0
67	15298024 155604 241202 398111 610.754373287 1418.849589067 5830 0 0 0 0
68	15453628 155604 241202 398111 610.754373287 1418.849589067 5830 0 0 0 0
69	15609232 173783 241202 398111 610.754373287 1418.849589067 5830 512 11024 54500128 528357681024
70	15783015 215683 241202 398130 610.6 1419.66262043 8093 0 14944981.54461 554137245.80758 2.0796878063384e+15
71	15998698 173783 241202 398111 610.754373287 1418.849589067 5830 512 11024 54500128 528357681024
72	16172481 215683 241202 398130 610.6 1419.66262043 8093 0 14944981.54461 554137245.80758 2.0796878063384e+15
77	16388164 172662 241204 398113 610.754484167 1418.849595307 5830 64 1378 6812516 8255588766
78	16560826 5621 241594 398095 610.764285977 1418.848471076 208 64 90 16818 1384702
79	16566447 5621 241594 398095 610.764285977 1418.848471076 208 64 90 16818 1384702
82	16572068 172653 241202 398111 610.754373287 1418.849589067 5830 64 1378 6812516 8255588766
89	16744721 178894 241179 398124 610.523273994 1418.849601647 6060 46 1360 6723092 8014981624
90	16923615 178894 241177 398122 610.523273994 1418.849601647 6060 46 1360 6723092 8014981624
105	17102509 270012 398130 398130 0.1 1419.66262043 14197 0 0 0 0
125	17372521 270012 398130 398130 0.1 1419.66262043 14197 0 0 0 0
132	17642533 6392 241193 398085 610.754270247 1418.838457586 236 0 0 0 0
133	17648925 6392 241193 398085 610.754270247 1418.838457586 236 0 0 0 0
134	17655317 6392 241193 398085 610.754270247 1418.838457586 236 0 0 0 0
135	17661709 6866 241193 398085 610.754270247 1418.838457586 236 512 1656 153376 103389696
136	17668575 156601 241193 398130 610.6 1419.66262043 8092 0 104160 1540960 62156019200
137	17825176 6866 241193 398085 610.754270247 1418.838457586 236 512 1656 153376 103389696
138	17832042 156601 241193 398130 610.6 1419.66262043 8092 0 104160 1540960 62156019200
143	17988643 6632 241195 398087 610.754278087 1418.838464306 236 64 207 19172 1615464
144	17995275 178339 241176 398121 610.523273994 1418.849601647 5824 64 1378 6813000 8257360912
145	18173614 178339 241176 398121 610.523273994 1418.849601647 5824 64 1378 6813000 8257360912
148	18351953 6633 241193 398085 610.754270247 1418.838457586 236 64 207 19172 1615464
154	18358586 161296 241180 398125 610.523273994 1418.849601647 5824 0 0 0 0
155	18519882 161296 241180 398125 610.523273994 1418.849601647 5824 0 0 0 0
156	18681178 161296 241180 398125 610.523273994 1418.849601647 5824 0 0 0 0
157	18842474 179463 241180 398125 610.523273994 1418.849601647 5824 512 11024 54504000 528471098368
158	19021937 223774 241216 398130 610.6 1419.66262043 8093 0 15034807.277814 554232130.67045 2.0818557114467e+15
159	19245711 179463 241180 398125 610.523273994 1418.849601647 5824 512 11024 54504000 528471098368
160	19425174 223774 241216 398130 610.6 1419.66262043 8093 0 15034807.277814 554232130.67045 2.0818557114467e+15
165	19648948 178332 241182 398127 610.523384874 1418.849607887 5824 64 1378 6813000 8257360912
166	19827280 6633 241189 398081 610.754270247 1418.838457586 236 64 207 19172 1615464
167	19833913 6633 241189 398081 610.754270247 1418.838457586 236 64 207 19172 1615464
170	19840546 178339 241180 398125 610.523273994 1418.849601647 5824 64 1378 6813000 8257360912
176	20018885 184116 241208 398117 610.754484217 1418.849595357 6031 28 1360 6719468 8012946298
177	20203001 184573 241206 398115 610.754484217 1418.849595357 6047 46 1360 6721158 8013100460
183	20387574 5624 241592 398093 610.764278087 1418.848464306 208 0 0 0 0
184	20393198 5624 241592 398093 610.764278087 1418.848464306 208 0 0 0 0
185	20398822 5624 241592 398093 610.764278087 1418.848464306 208 0 0 0 0
186	20404446 6040 241592 398093 610.764278087 1418.848464306 208 368 720 132960 87227008
187	20410486 156561 241592 398130 610.6 1419.66262043 8092 0 96960 1342080 53842496000
188	20567047 6040 241592 398093 610.764278087 1418.848464306 208 368 720 132960 87227008
189	20573087 156561 241592 398130 610.6 1419.66262043 8092 0 96960 1342080 53842496000
194	20729648 5832 241593 398094 610.764285927 1418.848471026 208 64 90 16818 1384702
195	20735480 178496 241205 398114 610.754484217 1418.849595357 5830 64 1378 6812516 8255588766
196	20913976 178496 241205 398114 610.754484217 1418.849595357 5830 64 1378 6812516 8255588766
199	21092472 5832 241592 398093 610.764278087 1418.848464306 208 46 90 16620 1362922
205	21098304 161286 241173 398118 610.523163064 1418.849595357 5824 0 0 0 0
206	21259590 161286 241173 398118 610.523163064 1418.849595357 5824 0 0 0 0
207	21420876 161286 241173 398118 610.523163064 1418.849595357 5824 0 0 0 0
208	21582162 179453 241173 398118 610.523163064 1418.849595357 5824 368 11024 54502272 528469577728
209	21761615 223772 241209 398130 610.6 1419.66262043 8093 0 15034807.277814 554237315.39821 2.082498642273e+15
210	21985387 179453 241173 398118 610.523163064 1418.849595357 5824 368 11024 54502272 528469577728
211	22164840 223772 241209 398130 610.6 1419.66262043 8093 0 15034807.277814 554237315.39821 2.082498642273e+15
216	22388612 178325 241175 398120 610.523273944 1418.849601597 5824 64 1378 6813000 8257360912
217	22566937 6153 241588 398089 610.764278087 1418.848464306 219 64 207 17902 1518308
218	22573090 6153 241588 398089 610.764278087 1418.848464306 219 64 207 17902 1518308
221	22579243 178329 241173 398118 610.523163064 1418.849595357 5824 46 1378 6812784 8257337152
222	22757572 479 243456 397935 610.845488006 1382.903370855 17 64 90 1270 97156
234	22758051 656 244576 397911 610.906672031 1364.056506986 23 28 28 644 18032
242	22758707 178494 241185 398104 610.754262357 1418.849582777 5830 46 1378 6812318 8255566986
243	22937201 5830 241602 398103 610.764293867 1418.848477846 208 64 90 16818 1384702
244	22943031 5830 241602 398103 610.764293867 1418.848477846 208 60 86 15986 1253486
245	22948861 178494 241185 398104 610.754262357 1418.849582777 5830 46 1378 6812318 8255566986
246	23127355 161445 241186 398105 610.754262357 1418.849582777 5830 0 0 0 0
247	23288800 161445 241186 398105 610.754262357 1418.849582777 5830 0 0 0 0
248	23450245 161445 241186 398105 610.754262357 1418.849582777 5830 0 0 0 0
249	23611690 179624 241186 398105 610.754262357 1418.849582777 5830 368 11024 54498544 528356287104
250	23791314 223776 241186 398130 610.6 1419.66262043 8093 0 14944981.54461 554143632.48005 2.0797772026453e+15
251	24015090 179624 241186 398105 610.754262357 1418.849582777 5830 368 11024 54498544 528356287104
252	24194714 223776 241186 398130 610.6 1419.66262043 8093 0 14944981.54461 554143632.48005 2.0797772026453e+15
257	24418490 178506 241197 398106 610.754373237 1418.849589017 5830 64 1378 6812516 8255588766
258	24596996 5830 241601 398102 610.764293867 1418.848477846 208 64 90 16818 1384702
259	24602826 5830 241601 398102 610.764293867 1418.848477846 208 64 90 16818 1384702
262	24608656 178494 241186 398105 610.754262357 1418.849582777 5830 46 1378 6812318 8255566986
288	24787150 6632 241185 398078 610.754262357 1418.838450816 236 46 207 18812 1575864
289	24793782 169474 241185 398130 610.533384874 1418.859607887 5535 64 1378 6478966 7854735476
290	24963256 169460 241185 398130 610.533384874 1418.859607887 5535 60 1374 6456826 7802992308
291	25132716 6632 241185 398078 610.754262357 1418.838450816 236 46 207 18812 1575864
292	25139348 6391 241187 398079 610.754262357 1418.838450816 236 0 0 0 0
293	25145739 6391 241187 398079 610.754262357 1418.838450816 236 0 0 0 0
294	25152130 6391 241187 398079 610.754262357 1418.838450816 236 0 0 0 0
295	25158521 6865 241187 398079 610.754262357 1418.838450816 236 368 1656 150496 100855296
296	25165386 156601 241187 398130 610.6 1419.66262043 8092 0 104160 1512160 61757888000
297	25321987 6865 241187 398079 610.754262357 1418.838450816 236 368 1656 150496 100855296
298	25328852 156601 241187 398130 610.6 1419.66262043 8092 0 104160 1512160 61757888000
303	25485453 6632 241188 398080 610.754270197 1418.838457536 236 64 207 19172 1615464
304	25492085 169474 241184 398129 610.533384874 1418.859607887 5535 64 1378 6478966 7854735476
305	25661559 169474 241184 398129 610.533384874 1418.859607887 5535 64 1378 6478966 7854735476
308	25831033 6632 241187 398079 610.754262357 1418.838450816 236 46 207 18812 1575864
309	25837665 8858 241604 397809 610.764706027 1358.756135795 289 66 1378 334034 402625436

